Info: SIMULATION PARAMETERS:
Info: TIMESTEP               2
Info: NUMBER OF STEPS        0
Info: STEPS PER CYCLE        10
Info: PERIODIC CELL BASIS 1  31.6673 0 0
Info: PERIODIC CELL BASIS 2  0 29.9918 0
Info: PERIODIC CELL BASIS 3  0 0 31.8379
Info: PERIODIC CELL CENTER   0 0 0
Info: WRAPPING WATERS AROUND PERIODIC BOUNDARIES ON OUTPUT.
Info: WRAPPING ALL CLUSTERS AROUND PERIODIC BOUNDARIES ON OUTPUT.
Info: FIRST LDB TIMESTEP     50
Info: LAST LDB TIMESTEP     -1
Info: HOM BACKGROUND SCALING 1
Info: PME BACKGROUND SCALING 1
Info: MIN ATOMS PER PATCH    40
Info: EMPTY PATCH LOAD       40 ATOMS
Info: VELOCITY FILE          mobley_3274817_equil.vel
Info: CENTER OF MASS MOVING INITIALLY? NO
Info: DIELECTRIC             1
Info: EXCLUDE                SCALED ONE-FOUR
Info: 1-4 ELECTROSTATICS SCALED BY 0.833333
Info: MODIFIED 1-4 VDW PARAMETERS WILL BE USED
Info: DCD FILENAME           mobley_3274817_prod.dcd
Info: DCD FREQUENCY          100000
Info: DCD FIRST STEP         100000
Info: DCD FILE WILL CONTAIN UNIT CELL DATA
Info: XST FILENAME           mobley_3274817_prod.xst
Info: XST FREQUENCY          100000
Info: NO VELOCITY DCD OUTPUT
Info: NO FORCE DCD OUTPUT
Info: OUTPUT FILENAME        mobley_3274817_prod
Info: BINARY OUTPUT FILES WILL BE USED
Info: RESTART FILENAME       mobley_3274817_prod.restart
Info: RESTART FREQUENCY      100000
Info: BINARY RESTART FILES WILL BE USED
Info: CUTOFF                 9
Info: PAIRLIST DISTANCE      11
Info: PAIRLIST SHRINK RATE   0.01
Info: PAIRLIST GROW RATE     0.01
Info: PAIRLIST TRIGGER       0.3
Info: PAIRLISTS PER CYCLE    2
Info: PAIRLISTS ENABLED
Info: MARGIN                 2
Info: HYDROGEN GROUP CUTOFF  2.5
Info: PATCH DIMENSION        15.5
Info: ENERGY OUTPUT STEPS    100000
Info: ENERGY EVALUATION STEPS    100000
Info: OUTPUT ENERGY PRECISION 4
Info: CROSSTERM ENERGY INCLUDED IN DIHEDRAL
Info: TIMING OUTPUT STEPS    1000000
Info: PRESSURE OUTPUT STEPS  100000
Info: ALCHEMICAL FEP ON
Info: FEP CURRENT LAMBDA VALUE     1
Info: FEP COMPARISON LAMBDA VALUE  0.95
Info: FEP INTRA-ALCHEMICAL NON-BONDED INTERACTIONS WILL BE RETAINED
Info: FEP INTRA-ALCHEMICAL BONDED INTERACTIONS WILL BE RETAINED
Info: FEP VDW SHIFTING COEFFICIENT 5
Info: FEP ELEC. ACTIVE FOR ANNIHILATED PARTICLES BETWEEN LAMBDA = 0 AND LAMBDA = 0.5
Info: FEP ELEC. ACTIVE FOR EXNIHILATED PARTICLES BETWEEN LAMBDA = 0.5 AND LAMBDA = 1
Info: FEP VDW ACTIVE FOR ANNIHILATED PARTICLES BETWEEN LAMBDA = 0 AND LAMBDA = 1
Info: FEP VDW ACTIVE FOR EXNIHILATED PARTICLES BETWEEN LAMBDA = 0 AND LAMBDA = 1
Info: FEP BOND ACTIVE FOR ANNIHILATED PARTICLES BETWEEN LAMBDA = 1 AND LAMBDA = 1
Info: FEP BOND ACTIVE FOR EXNIHILATED PARTICLES BETWEEN LAMBDA = 0 AND LAMBDA = 0
Info: LANGEVIN DYNAMICS ACTIVE
Info: LANGEVIN TEMPERATURE   300
Info: LANGEVIN USING BBK INTEGRATOR
Info: LANGEVIN DAMPING COEFFICIENT IS 1 INVERSE PS
Info: LANGEVIN DYNAMICS APPLIED TO HYDROGENS
Info: LANGEVIN PISTON PRESSURE CONTROL ACTIVE
Info:        TARGET PRESSURE IS 1.01325 BAR
Info:     OSCILLATION PERIOD IS 50 FS
Info:             DECAY TIME IS 25 FS
Info:     PISTON TEMPERATURE IS 300 K
Info:       PRESSURE CONTROL IS GROUP-BASED
Info:    INITIAL STRAIN RATE IS -2.64377e-05 -2.64377e-05 -2.64377e-05
Info:       CELL FLUCTUATION IS ISOTROPIC
Info: PARTICLE MESH EWALD (PME) ACTIVE
Info: PME TOLERANCE               1e-06
Info: PME EWALD COEFFICIENT       0.348832
Info: PME INTERPOLATION ORDER     4
Info: PME GRID DIMENSIONS         32 32 32
Info: PME MAXIMUM GRID SPACING    1
Info: PME CALCULATION WILL BE PERFORMED ON GPU
Info: FULL ELECTROSTATIC EVALUATION FREQUENCY      2
Info: USING VERLET I (r-RESPA) MTS SCHEME.
Info: C1 SPLITTING OF LONG RANGE ELECTROSTATICS
Info: PLACING ATOMS IN PATCHES BY HYDROGEN GROUPS
Info: RIGID BONDS TO HYDROGEN : ALL
Info:         ERROR TOLERANCE : 1e-08
Info:          MAX ITERATIONS : 100
Info: RIGID WATER USING SETTLE ALGORITHM
Info: RANDOM NUMBER SEED     1743991002
Info: USE HYDROGEN BONDS?    NO
Info: Using AMBER format force field!
Info: AMBER PARM FILE        mobley_3274817.prmtop
Info: COORDINATE PDB         mobley_3274817.pdb
Info: Exclusions will be read from PARM file!
Info: SCNB (VDW SCALING)     2
Info: USING ARITHMETIC MEAN TO COMBINE L-J SIGMA PARAMETERS
Info: BINARY COORDINATES     mobley_3274817_equil.coor
Info: SUMMARY OF PARAMETERS:
Info: 11 BONDS
Info: 13 ANGLES
Info:   13 HARMONIC
Info:   0 COSINE-BASED
Info: 11 DIHEDRAL
Info: 0 IMPROPER
Info: 0 CROSSTERM
Info: 0 VDW
Info: 45 VDW_PAIRS
Info: 0 NBTHOLE_PAIRS
Info: To read alchdata from file: mobley_3274817.pdb
Info: To read alchflag data from column: 5
Info: STRUCTURE SUMMARY:
Info: 2909 ATOMS
Info: 2909 BONDS
Info: 49 ANGLES
Info: 75 DIHEDRALS
Info: 0 IMPROPERS
Info: 0 CROSSTERMS
Info: 3022 EXCLUSIONS
Info: 2892 RIGID BONDS
Info: ALCH: 0 ATOMS TO DISAPPEAR IN FINAL STATE
Info: ALCH: 29 ATOMS TO APPEAR IN FINAL STATE
Info: 5835 DEGREES OF FREEDOM
Info: 977 HYDROGEN GROUPS
Info: 4 ATOMS IN LARGEST HYDROGEN GROUP
Info: 977 MIGRATION GROUPS
Info: 4 ATOMS IN LARGEST MIGRATION GROUP
Info: TOTAL MASS = 17535.6 amu
Info: TOTAL CHARGE = 9.99689e-05 e
Info: MASS DENSITY = 0.962986 g/cm^3
Info: ATOM DENSITY = 0.0962021 atoms/A^3
Info: ADDED 0 IMPLICIT EXCLUSIONS
Info: NONBONDED TABLE R-SQUARED SPACING: 0.0625
Info: NONBONDED TABLE SIZE: 705 POINTS
Info: REMOVING COM VELOCITY -0.123548 -0.133867 -0.0860667
Info: Use 3D box decompostion in PME FFT.
Info: Updated CUDA force table with 4096 elements.
Info: Updated CUDA LJ table with 9 x 9 elements.
Info: Found 32 unique exclusion lists needing 128 bytes
TCL: Running for 1500000 steps
ETITLE: TS BOND ANGLE DIHED IMPRP ELECT VDW BOUNDARY MISC KINETIC TOTAL TEMP POTENTIAL TOTALAVG TEMPAVG PRESSURE GPRESSURE VOLUME PRESSAVG GPRESSAVG
ENERGY: 0 4.6982 11.8590 10.8990 0.0000 -10477.8573 1392.6023 0.0000 0.0000 1793.1274 -7264.6714 309.2863 -9057.7987 -7264.6714 309.2863 -92.1926 -17.6148 30238.4273 -92.1926 -17.6148
ENERGY: 300000 5.4986 10.4680 11.7709 0.0000 -10514.0659 1394.8000 0.0000 0.0000 1687.3032 -7404.2253 291.0333 -9091.5285 -7315.2992 302.6153 -280.1856 -178.0244 29945.8281 226.6524 279.2709
ENERGY: 600000 9.3007 8.4693 7.0957 0.0000 -10529.3864 1396.6764 0.0000 0.0000 1794.9601 -7312.8842 309.6024 -9107.8443 -7315.5037 303.4845 -67.9733 -31.5460 29904.0754 22.6338 91.7988
ENERGY: 900000 4.6046 13.6802 10.0100 0.0000 -10571.2112 1387.5770 0.0000 0.0000 1663.4736 -7491.8658 286.9230 -9155.3393 -7335.2999 301.1011 -355.4430 -339.9535 29694.0780 31.9562 89.5086
ENERGY: 1200000 5.5824 12.2920 10.6678 0.0000 -10643.7333 1507.2911 0.0000 0.0000 1714.5054 -7393.3946 295.7252 -9107.9000 -7347.2382 299.9163 663.5328 767.5637 29758.1253 135.1865 198.1335
ENERGY: 1500000 5.9560 8.8020 6.9021 0.0000 -10443.0955 1403.1640 0.0000 0.0000 1753.6002 -7264.6712 302.4685 -9018.2713 -7337.8135 300.5513 185.3578 324.1398 29740.2201 119.8613 179.2704
TCL: Running FEP window   2: Lambda1 0.95   Lambda2 0.8999999999999999 [dLambda -0.050000000000000044]
TCL: Setting parameter firsttimestep to 0
TCL: Setting parameter alchLambda to 0.95
Info: NONBONDED TABLE R-SQUARED SPACING: 0.0625
Info: NONBONDED TABLE SIZE: 705 POINTS
TCL: Setting parameter alchLambda2 to 0.8999999999999999
Info: NONBONDED TABLE R-SQUARED SPACING: 0.0625
Info: NONBONDED TABLE SIZE: 705 POINTS
TCL: Running for 1500000 steps
ETITLE: TS BOND ANGLE DIHED IMPRP ELECT VDW BOUNDARY MISC KINETIC TOTAL TEMP POTENTIAL TOTALAVG TEMPAVG PRESSURE GPRESSURE VOLUME PRESSAVG GPRESSAVG
ENERGY: 0 5.9560 8.8020 6.9021 0.0000 -10442.7637 1403.5083 0.0000 0.0000 1752.7387 -7264.8567 302.3199 -9017.5953 -7264.8567 302.3199 227.1457 304.7375 29740.2201 227.1457 304.7375
ENERGY: 300000 6.4128 9.4975 5.4984 0.0000 -10623.4472 1461.5174 0.0000 0.0000 1751.5788 -7388.9422 302.1198 -9140.5210 -7329.4844 301.3885 166.9556 182.6627 29915.3093 -68.6089 -15.8932
ENERGY: 600000 7.8588 9.3246 10.7509 0.0000 -10625.2751 1514.5497 0.0000 0.0000 1765.0595 -7317.7316 304.4450 -9082.7911 -7312.5581 302.5382 343.9408 341.0907 30753.7327 -153.6432 -111.0845
ENERGY: 900000 4.5134 13.9961 7.9139 0.0000 -10532.6413 1425.6057 0.0000 0.0000 1706.0565 -7374.5557 294.2679 -9080.6122 -7321.7323 300.9679 55.1665 119.5317 30039.2918 -126.7791 -74.4121
ENERGY: 1200000 4.5204 9.1226 6.6835 0.0000 -10761.4414 1528.6893 0.0000 0.0000 1740.9892 -7471.4363 300.2933 -9212.4256 -7332.1401 301.4916 633.8578 788.9423 29550.8087 -33.6564 28.8892
ENERGY: 1500000 8.8728 9.6447 8.9548 0.0000 -10550.1113 1445.8134 0.0000 0.0000 1742.3053 -7334.5202 300.5203 -9076.8255 -7328.8293 301.2295 178.8475 249.1597 29857.1826 17.4102 76.8991
TCL: Running FEP window   3: Lambda1 0.8999999999999999 Lambda2 0.8499999999999999 [dLambda -0.050000000000000044]
TCL: Setting parameter firsttimestep to 0
TCL: Setting parameter alchLambda to 0.8999999999999999
Info: NONBONDED TABLE R-SQUARED SPACING: 0.0625
Info: NONBONDED TABLE SIZE: 705 POINTS
TCL: Setting parameter alchLambda2 to 0.8499999999999999
Info: NONBONDED TABLE R-SQUARED SPACING: 0.0625
Info: NONBONDED TABLE SIZE: 705 POINTS
TCL: Running for 1500000 steps
ETITLE: TS BOND ANGLE DIHED IMPRP ELECT VDW BOUNDARY MISC KINETIC TOTAL TEMP POTENTIAL TOTALAVG TEMPAVG PRESSURE GPRESSURE VOLUME PRESSAVG GPRESSAVG
ENERGY: 0 8.8728 9.6447 8.9548 0.0000 -10549.1426 1445.9422 0.0000 0.0000 1741.4723 -7334.2557 300.3766 -9075.7280 -7334.2557 300.3766 142.1428 228.9357 29857.1826 142.1428 228.9357
ENERGY: 300000 4.0375 9.1844 6.7308 0.0000 -10526.6781 1411.2352 0.0000 0.0000 1715.8138 -7379.6764 295.9509 -9095.4902 -7362.4245 298.2194 -155.3167 -70.1434 30163.9096 -417.7993 -364.3087
ENERGY: 600000 5.1673 12.2659 10.4623 0.0000 -10454.0250 1291.8292 0.0000 0.0000 1752.3715 -7381.9288 302.2565 -9134.3003 -7351.4214 299.9083 -1061.6754 -1050.3888 29954.9507 -494.8647 -449.1360
ENERGY: 900000 4.9959 10.5886 7.3587 0.0000 -10325.2008 1275.1168 0.0000 0.0000 1788.6933 -7238.4475 308.5215 -9027.1409 -7345.1596 300.0975 -594.1305 -600.1087 29926.6719 -414.5543 -377.2382
ENERGY: 1200000 11.4370 7.5789 7.9359 0.0000 -10519.0970 1421.7957 0.0000 0.0000 1749.9253 -7320.4243 301.8346 -9070.3496 -7336.7044 300.8419 29.2062 68.7934 29965.9069 -312.3991 -273.8638
ENERGY: 1500000 4.1044 13.1736 11.2062 0.0000 -10650.9589 1492.3992 0.0000 0.0000 1700.9353 -7429.1403 293.3846 -9130.0756 -7343.0364 299.7223 743.8024 790.8717 29608.9359 -184.8527 -139.1444
TCL: Running FEP window   4: Lambda1 0.8499999999999999 Lambda2 0.7999999999999998 [dLambda -0.050000000000000044]
TCL: Setting parameter firsttimestep to 0
TCL: Setting parameter alchLambda to 0.8499999999999999
Info: NONBONDED TABLE R-SQUARED SPACING: 0.0625
Info: NONBONDED TABLE SIZE: 705 POINTS
TCL: Setting parameter alchLambda2 to 0.7999999999999998
Info: NONBONDED TABLE R-SQUARED SPACING: 0.0625
Info: NONBONDED TABLE SIZE: 705 POINTS
TCL: Running for 1500000 steps
ETITLE: TS BOND ANGLE DIHED IMPRP ELECT VDW BOUNDARY MISC KINETIC TOTAL TEMP POTENTIAL TOTALAVG TEMPAVG PRESSURE GPRESSURE VOLUME PRESSAVG GPRESSAVG
ENERGY: 0 4.1044 13.1736 11.2062 0.0000 -10649.4794 1490.8942 0.0000 0.0000 1700.1081 -7429.9930 293.2419 -9130.1011 -7429.9930 293.2419 689.7706 754.5118 29608.9359 689.7706 754.5118
ENERGY: 300000 9.0980 8.8641 4.6853 0.0000 -10334.9232 1239.5705 0.0000 0.0000 1711.6631 -7361.0421 295.2350 -9072.7052 -7398.2464 295.0476 -1252.5341 -1261.7798 30045.8508 -235.1811 -175.0271
ENERGY: 600000 7.8782 12.9136 4.3679 0.0000 -10508.2934 1414.5832 0.0000 0.0000 1709.5738 -7358.9766 294.8746 -9068.5504 -7369.9227 297.4410 -149.1135 -76.4283 30006.2550 -259.1571 -192.4513
ENERGY: 900000 7.2645 11.7263 11.1901 0.0000 -10447.2943 1398.8628 0.0000 0.0000 1702.1074 -7316.1432 293.5868 -9018.2506 -7352.4554 299.0079 -167.6468 -99.2007 30270.6088 -290.7402 -227.7633
ENERGY: 1200000 7.4999 17.5475 4.8887 0.0000 -10530.3599 1453.4908 0.0000 0.0000 1741.5330 -7305.4001 300.3871 -9046.9331 -7346.0520 299.2895 351.0309 443.7932 29925.9191 -213.5652 -160.4793
ENERGY: 1500000 4.4493 8.7478 7.7636 0.0000 -10411.8640 1313.7284 0.0000 0.0000 1701.7408 -7375.4341 293.5235 -9077.1749 -7346.0164 299.3002 -1171.6555 -1125.2654 30500.2775 -245.4572 -195.8837
TCL: Running FEP window   5: Lambda1 0.7999999999999998 Lambda2 0.7499999999999998 [dLambda -0.050000000000000044]
TCL: Setting parameter firsttimestep to 0
TCL: Setting parameter alchLambda to 0.7999999999999998
Info: NONBONDED TABLE R-SQUARED SPACING: 0.0625
Info: NONBONDED TABLE SIZE: 705 POINTS
TCL: Setting parameter alchLambda2 to 0.7499999999999998
Info: NONBONDED TABLE R-SQUARED SPACING: 0.0625
Info: NONBONDED TABLE SIZE: 705 POINTS
TCL: Running for 1500000 steps
ETITLE: TS BOND ANGLE DIHED IMPRP ELECT VDW BOUNDARY MISC KINETIC TOTAL TEMP POTENTIAL TOTALAVG TEMPAVG PRESSURE GPRESSURE VOLUME PRESSAVG GPRESSAVG
ENERGY: 0 4.4493 8.7478 7.7636 0.0000 -10410.5078 1313.8806 0.0000 0.0000 1700.9127 -7374.7538 293.3807 -9075.6665 -7374.7538 293.3807 -1228.7109 -1136.6140 30500.2775 -1228.7109 -1136.6140
ENERGY: 300000 3.8498 8.3493 9.3059 0.0000 -10356.1555 1411.6642 0.0000 0.0000 1750.3695 -7172.6168 301.9112 -8922.9864 -7298.7712 303.5851 520.2627 527.6572 29966.7616 -75.0457 -15.2657
ENERGY: 600000 5.0106 10.9694 7.0923 0.0000 -10575.3725 1421.1947 0.0000 0.0000 1753.4425 -7377.6630 302.4413 -9131.1055 -7316.9534 302.3726 94.9160 169.0819 29632.7893 31.6734 79.1624
ENERGY: 900000 6.6248 9.3137 10.2686 0.0000 -10425.0987 1407.2578 0.0000 0.0000 1744.3825 -7247.2513 300.8786 -8991.6338 -7319.9712 300.7707 237.0740 276.9050 29938.8966 8.0250 60.2929
ENERGY: 1200000 6.0642 13.8200 6.1159 0.0000 -10515.7843 1393.2623 0.0000 0.0000 1698.9297 -7397.5921 293.0387 -9096.5218 -7328.9847 300.3680 -56.6837 -31.8013 29963.0728 60.7348 112.2776
ENERGY: 1500000 11.0125 20.3294 7.5872 0.0000 -10448.0811 1399.1200 0.0000 0.0000 1778.2228 -7231.8092 306.7155 -9010.0320 -7316.8083 300.8017 -54.2891 3.2346 30204.6362 -13.8927 38.2790
TCL: Running FEP window   6: Lambda1 0.7499999999999998 Lambda2 0.6999999999999997 [dLambda -0.050000000000000044]
TCL: Setting parameter firsttimestep to 0
TCL: Setting parameter alchLambda to 0.7499999999999998
Info: NONBONDED TABLE R-SQUARED SPACING: 0.0625
Info: NONBONDED TABLE SIZE: 705 POINTS
TCL: Setting parameter alchLambda2 to 0.6999999999999997
Info: NONBONDED TABLE R-SQUARED SPACING: 0.0625
Info: NONBONDED TABLE SIZE: 705 POINTS
TCL: Running for 1500000 steps
ETITLE: TS BOND ANGLE DIHED IMPRP ELECT VDW BOUNDARY MISC KINETIC TOTAL TEMP POTENTIAL TOTALAVG TEMPAVG PRESSURE GPRESSURE VOLUME PRESSAVG GPRESSAVG
ENERGY: 0 11.0125 20.3294 7.5872 0.0000 -10447.3641 1398.5826 0.0000 0.0000 1777.3955 -7232.4570 306.5728 -9009.8525 -7232.4570 306.5728 -110.8509 -19.1199 30204.6362 -110.8509 -19.1199
ENERGY: 300000 8.6642 11.5472 12.4895 0.0000 -10428.1616 1353.2768 0.0000 0.0000 1770.9348 -7271.2491 305.4584 -9042.1840 -7298.2901 303.3148 -473.3567 -423.5963 30108.5195 -290.9113 -245.5921
ENERGY: 600000 9.8850 8.2761 6.2349 0.0000 -10574.6836 1421.0048 0.0000 0.0000 1747.5312 -7381.7515 301.4217 -9129.2827 -7327.5335 303.1707 -15.4792 28.2491 29631.9020 -253.5183 -190.7740
ENERGY: 900000 8.4238 9.1372 6.2088 0.0000 -10433.0126 1425.5231 0.0000 0.0000 1735.2338 -7248.4859 299.3006 -8983.7198 -7310.2408 302.9379 110.1618 215.8233 30242.3600 -0.1812 50.7569
ENERGY: 1200000 3.7611 7.5460 10.6803 0.0000 -10393.6941 1389.3782 0.0000 0.0000 1786.9925 -7195.3360 308.2281 -8982.3285 -7310.1519 303.5173 213.9651 221.8176 30095.2567 27.1065 74.3999
ENERGY: 1500000 4.9279 13.5639 8.0453 0.0000 -10569.0220 1451.7418 0.0000 0.0000 1710.0684 -7380.6748 294.9599 -9090.7432 -7319.2428 302.7593 388.0263 383.5633 30051.8516 34.6339 81.0583
TCL: Running FEP window   7: Lambda1 0.6999999999999997 Lambda2 0.6499999999999997 [dLambda -0.050000000000000044]
TCL: Setting parameter firsttimestep to 0
TCL: Setting parameter alchLambda to 0.6999999999999997
Info: NONBONDED TABLE R-SQUARED SPACING: 0.0625
Info: NONBONDED TABLE SIZE: 705 POINTS
TCL: Setting parameter alchLambda2 to 0.6499999999999997
Info: NONBONDED TABLE R-SQUARED SPACING: 0.0625
Info: NONBONDED TABLE SIZE: 705 POINTS
TCL: Running for 1500000 steps
ETITLE: TS BOND ANGLE DIHED IMPRP ELECT VDW BOUNDARY MISC KINETIC TOTAL TEMP POTENTIAL TOTALAVG TEMPAVG PRESSURE GPRESSURE VOLUME PRESSAVG GPRESSAVG
ENERGY: 0 4.9279 13.5639 8.0453 0.0000 -10568.0845 1450.9477 0.0000 0.0000 1709.1949 -7381.4048 294.8093 -9090.5997 -7381.4048 294.8093 256.0053 356.1676 30051.8516 256.0053 356.1676
ENERGY: 300000 2.8724 10.8698 5.0398 0.0000 -10497.9920 1407.4109 0.0000 0.0000 1757.4675 -7314.3315 303.1355 -9071.7991 -7319.9836 301.7630 234.2327 285.0603 29658.2996 237.4974 325.6366
ENERGY: 600000 6.1747 8.2816 7.8505 0.0000 -10558.6413 1492.1697 0.0000 0.0000 1770.2992 -7273.8656 305.3488 -9044.1647 -7334.3895 302.2624 464.7254 550.8716 30276.7682 264.3997 329.0899
ENERGY: 900000 5.9236 11.4357 7.9242 0.0000 -10344.2129 1323.2178 0.0000 0.0000 1697.0829 -7298.6287 292.7201 -8995.7116 -7334.0394 300.9567 -619.9119 -525.2168 30203.4960 117.9699 187.5190
ENERGY: 1200000 5.8022 14.9434 6.1002 0.0000 -10339.9981 1242.3446 0.0000 0.0000 1760.4552 -7310.3526 303.6509 -9070.8078 -7323.3221 302.6093 -1050.5342 -1026.3958 29911.0394 4.4720 75.4718
ENERGY: 1500000 5.8351 10.4331 9.7461 0.0000 -10579.5776 1420.4588 0.0000 0.0000 1728.2333 -7404.8712 298.0931 -9133.1045 -7332.7482 301.8272 -73.6797 -32.5588 29706.9518 20.9124 89.1063
TCL: Running FEP window   8: Lambda1 0.6499999999999997 Lambda2 0.5999999999999996 [dLambda -0.050000000000000044]
TCL: Setting parameter firsttimestep to 0
TCL: Setting parameter alchLambda to 0.6499999999999997
Info: NONBONDED TABLE R-SQUARED SPACING: 0.0625
Info: NONBONDED TABLE SIZE: 705 POINTS
TCL: Setting parameter alchLambda2 to 0.5999999999999996
Info: NONBONDED TABLE R-SQUARED SPACING: 0.0625
Info: NONBONDED TABLE SIZE: 705 POINTS
TCL: Running for 1500000 steps
ETITLE: TS BOND ANGLE DIHED IMPRP ELECT VDW BOUNDARY MISC KINETIC TOTAL TEMP POTENTIAL TOTALAVG TEMPAVG PRESSURE GPRESSURE VOLUME PRESSAVG GPRESSAVG
ENERGY: 0 5.8351 10.4331 9.7461 0.0000 -10579.3005 1420.9742 0.0000 0.0000 1727.3734 -7404.9385 297.9448 -9132.3120 -7404.9385 297.9448 -122.9184 -41.5230 29706.9518 -122.9184 -41.5230
ENERGY: 300000 6.5011 8.2369 9.4359 0.0000 -10687.2952 1466.1189 0.0000 0.0000 1741.8002 -7455.2022 300.4332 -9197.0024 -7408.1486 297.5057 204.4357 226.8203 29329.0153 67.2701 120.6354
ENERGY: 600000 13.7845 11.4065 7.0200 0.0000 -10502.1811 1383.6793 0.0000 0.0000 1706.7923 -7379.4986 294.3948 -9086.2909 -7405.9325 297.3027 -116.6412 -128.0701 29533.2069 69.1424 111.8913
ENERGY: 900000 11.3850 10.6704 10.6760 0.0000 -10431.6294 1361.8390 0.0000 0.0000 1750.4052 -7286.6537 301.9174 -9037.0589 -7370.9288 297.9056 -539.7665 -430.1685 29927.8996 37.9126 92.5750
ENERGY: 1200000 8.8001 9.6485 2.9021 0.0000 -10591.2431 1418.9191 0.0000 0.0000 1734.6654 -7416.3079 299.2025 -9150.9733 -7376.1015 297.9276 -389.9055 -325.8081 30006.2837 11.7540 64.4161
ENERGY: 1500000 8.2160 11.8116 7.8502 0.0000 -10503.6207 1440.2083 0.0000 0.0000 1728.9881 -7306.5466 298.2233 -9035.5347 -7363.0897 298.5180 535.8918 584.7337 29908.9030 49.6360 102.8510
TCL: Running FEP window   9: Lambda1 0.5999999999999996 Lambda2 0.5499999999999996 [dLambda -0.050000000000000044]
TCL: Setting parameter firsttimestep to 0
TCL: Setting parameter alchLambda to 0.5999999999999996
Info: NONBONDED TABLE R-SQUARED SPACING: 0.0625
Info: NONBONDED TABLE SIZE: 705 POINTS
TCL: Setting parameter alchLambda2 to 0.5499999999999996
Info: NONBONDED TABLE R-SQUARED SPACING: 0.0625
Info: NONBONDED TABLE SIZE: 705 POINTS
TCL: Running for 1500000 steps
ETITLE: TS BOND ANGLE DIHED IMPRP ELECT VDW BOUNDARY MISC KINETIC TOTAL TEMP POTENTIAL TOTALAVG TEMPAVG PRESSURE GPRESSURE VOLUME PRESSAVG GPRESSAVG
ENERGY: 0 8.2160 11.8116 7.8502 0.0000 -10503.2554 1440.7454 0.0000 0.0000 1728.1473 -7306.4850 298.0782 -9034.6323 -7306.4850 298.0782 498.0712 574.9794 29908.9030 498.0712 574.9794
ENERGY: 300000 6.7632 7.6450 9.6694 0.0000 -10500.7646 1472.9039 0.0000 0.0000 1732.5106 -7271.2725 298.8309 -9003.7831 -7284.9460 299.1856 1147.7273 1226.8996 29389.7984 233.1356 310.1492
ENERGY: 600000 4.0490 7.0176 8.8773 0.0000 -10570.9298 1455.9804 0.0000 0.0000 1773.2097 -7321.7958 305.8508 -9095.0055 -7288.8398 303.1902 855.1187 944.1992 29551.2525 -36.4203 46.4012
ENERGY: 900000 8.4269 11.2928 4.4695 0.0000 -10483.1509 1440.3650 0.0000 0.0000 1739.7488 -7278.8479 300.0793 -9018.5967 -7289.4369 302.4555 76.3962 109.7918 30351.1190 -94.0009 -24.7085
ENERGY: 1200000 6.0813 16.8004 8.8507 0.0000 -10463.3557 1339.7233 0.0000 0.0000 1751.0528 -7340.8471 302.0291 -9091.9000 -7307.8229 301.4349 -530.8073 -462.2273 29559.8918 -148.9209 -76.5418
ENERGY: 1500000 6.7863 9.2782 4.9010 0.0000 -10388.8752 1328.5625 0.0000 0.0000 1738.5887 -7300.7584 299.8792 -9039.3471 -7310.5286 301.3891 -767.2142 -674.7578 30222.0677 -219.4964 -148.0738
TCL: Running FEP window  10: Lambda1 0.5499999999999996 Lambda2 0.4999999999999996 [dLambda -0.04999999999999999]
TCL: Setting parameter firsttimestep to 0
TCL: Setting parameter alchLambda to 0.5499999999999996
Info: NONBONDED TABLE R-SQUARED SPACING: 0.0625
Info: NONBONDED TABLE SIZE: 705 POINTS
TCL: Setting parameter alchLambda2 to 0.4999999999999996
Info: NONBONDED TABLE R-SQUARED SPACING: 0.0625
Info: NONBONDED TABLE SIZE: 705 POINTS
TCL: Running for 1500000 steps
ETITLE: TS BOND ANGLE DIHED IMPRP ELECT VDW BOUNDARY MISC KINETIC TOTAL TEMP POTENTIAL TOTALAVG TEMPAVG PRESSURE GPRESSURE VOLUME PRESSAVG GPRESSAVG
ENERGY: 0 6.7863 9.2782 4.9010 0.0000 -10388.5730 1329.8447 0.0000 0.0000 1737.7688 -7299.9939 299.7378 -9037.7627 -7299.9939 299.7378 -761.4184 -676.1590 30222.0677 -761.4184 -676.1590
ENERGY: 300000 11.8444 10.7495 7.9171 0.0000 -10561.9155 1414.2966 0.0000 0.0000 1768.4798 -7348.6282 305.0350 -9117.1079 -7336.9019 299.2496 70.9102 192.4388 29564.9636 -347.1644 -253.6381
ENERGY: 600000 6.3399 6.9328 8.9220 0.0000 -10506.4117 1479.1711 0.0000 0.0000 1758.5820 -7246.4640 303.3277 -9005.0460 -7320.4146 299.3929 1004.7020 1151.5061 29742.8285 -95.9331 -9.9405
ENERGY: 900000 8.6454 8.3511 8.2942 0.0000 -10576.1176 1460.5900 0.0000 0.0000 1697.7582 -7392.4787 292.8366 -9090.2369 -7337.7728 298.0665 369.9314 426.0400 29756.2760 -33.3340 41.1378
ENERGY: 1200000 7.1200 8.4976 7.8615 0.0000 -10587.7052 1485.2539 0.0000 0.0000 1734.7348 -7344.2376 299.2145 -9078.9724 -7346.3695 297.6942 528.8019 648.1360 29927.9939 25.9455 102.3984
ENERGY: 1500000 6.2718 13.8558 6.5051 0.0000 -10632.3674 1459.9051 0.0000 0.0000 1744.0825 -7401.7470 300.8268 -9145.8295 -7344.6638 298.4536 260.6584 317.7554 29608.7949 22.5695 92.3794
TCL: Running FEP window  11: Lambda1 0.4999999999999996 Lambda2 0.4499999999999996 [dLambda -0.04999999999999999]
TCL: Setting parameter firsttimestep to 0
TCL: Setting parameter alchLambda to 0.4999999999999996
Info: NONBONDED TABLE R-SQUARED SPACING: 0.0625
Info: NONBONDED TABLE SIZE: 705 POINTS
TCL: Setting parameter alchLambda2 to 0.4499999999999996
Info: NONBONDED TABLE R-SQUARED SPACING: 0.0625
Info: NONBONDED TABLE SIZE: 705 POINTS
TCL: Running for 1500000 steps
ETITLE: TS BOND ANGLE DIHED IMPRP ELECT VDW BOUNDARY MISC KINETIC TOTAL TEMP POTENTIAL TOTALAVG TEMPAVG PRESSURE GPRESSURE VOLUME PRESSAVG GPRESSAVG
ENERGY: 0 6.2718 13.8558 6.5051 0.0000 -10632.5344 1460.4872 0.0000 0.0000 1743.1969 -7402.2176 300.6741 -9145.4145 -7402.2176 300.6741 232.2180 310.4469 29608.7949 232.2180 310.4469
ENERGY: 300000 7.2123 6.8886 3.4502 0.0000 -10329.5911 1272.7614 0.0000 0.0000 1764.6071 -7274.6715 304.3670 -9039.2787 -7333.7339 300.8410 -1195.0078 -1107.7111 30174.4998 -186.9372 -130.5002
ENERGY: 600000 4.3025 7.4768 7.4505 0.0000 -10497.5293 1435.2098 0.0000 0.0000 1733.3863 -7309.7034 298.9819 -9043.0897 -7310.1188 303.2342 336.4172 302.1047 29920.7883 66.5470 113.1819
ENERGY: 900000 4.1886 11.6689 8.6593 0.0000 -10559.6919 1416.5820 0.0000 0.0000 1742.0893 -7376.5038 300.4830 -9118.5931 -7325.7102 301.5799 -83.2106 -107.7007 30081.4179 93.2437 132.4661
ENERGY: 1200000 4.8832 10.3414 11.0072 0.0000 -10485.5356 1424.8706 0.0000 0.0000 1722.1339 -7312.2994 297.0410 -9034.4333 -7321.0566 300.6085 77.8329 145.1918 30047.1128 -15.7938 37.1028
ENERGY: 1500000 2.3729 13.2200 6.5398 0.0000 -10470.2983 1336.6802 0.0000 0.0000 1740.0720 -7371.4134 300.1351 -9111.4854 -7313.4529 301.2025 -730.7222 -694.8157 29988.6853 -52.7487 -2.6356
TCL: Running FEP window  12: Lambda1 0.4499999999999996 Lambda2 0.39999999999999963 [dLambda -0.04999999999999999]
TCL: Setting parameter firsttimestep to 0
TCL: Setting parameter alchLambda to 0.4499999999999996
Info: NONBONDED TABLE R-SQUARED SPACING: 0.0625
Info: NONBONDED TABLE SIZE: 705 POINTS
TCL: Setting parameter alchLambda2 to 0.39999999999999963
Info: NONBONDED TABLE R-SQUARED SPACING: 0.0625
Info: NONBONDED TABLE SIZE: 705 POINTS
TCL: Running for 1500000 steps
ETITLE: TS BOND ANGLE DIHED IMPRP ELECT VDW BOUNDARY MISC KINETIC TOTAL TEMP POTENTIAL TOTALAVG TEMPAVG PRESSURE GPRESSURE VOLUME PRESSAVG GPRESSAVG
ENERGY: 0 2.3729 13.2200 6.5398 0.0000 -10470.2983 1337.2353 0.0000 0.0000 1739.2007 -7371.7296 299.9848 -9110.9303 -7371.7296 299.9848 -779.4054 -698.2147 29988.6853 -779.4054 -698.2147
ENERGY: 300000 10.3774 7.4563 7.6421 0.0000 -10450.6717 1359.1911 0.0000 0.0000 1767.7155 -7298.2894 304.9031 -9066.0049 -7384.6129 297.7340 -619.9993 -551.1093 29861.7263 -350.4996 -284.1447
ENERGY: 600000 5.8117 12.1057 6.1102 0.0000 -10636.4077 1513.4561 0.0000 0.0000 1737.8556 -7361.0685 299.7528 -9098.9240 -7359.9338 298.8733 606.1758 664.7920 29995.8953 -98.9217 -36.4104
ENERGY: 900000 7.0917 9.5096 10.0789 0.0000 -10493.9084 1362.2044 0.0000 0.0000 1725.2353 -7379.7885 297.5760 -9105.0238 -7357.2243 299.2266 -457.4669 -414.2184 30047.6307 8.8648 68.2514
ENERGY: 1200000 4.6672 9.6173 4.1607 0.0000 -10370.3135 1311.5236 0.0000 0.0000 1725.0693 -7315.2755 297.5473 -9040.3448 -7346.3465 299.2614 -422.8055 -352.6976 29579.4056 14.7361 74.9348
ENERGY: 1500000 4.5191 12.0262 11.3957 0.0000 -10529.7319 1449.5739 0.0000 0.0000 1730.4376 -7321.7795 298.4733 -9052.2171 -7342.6793 299.8466 449.6945 491.1171 29759.2194 61.0654 115.5875
TCL: Running FEP window  13: Lambda1 0.39999999999999963 Lambda2 0.34999999999999964 [dLambda -0.04999999999999999]
TCL: Setting parameter firsttimestep to 0
TCL: Setting parameter alchLambda to 0.39999999999999963
Info: NONBONDED TABLE R-SQUARED SPACING: 0.0625
Info: NONBONDED TABLE SIZE: 705 POINTS
TCL: Setting parameter alchLambda2 to 0.34999999999999964
Info: NONBONDED TABLE R-SQUARED SPACING: 0.0625
Info: NONBONDED TABLE SIZE: 705 POINTS
TCL: Running for 1500000 steps
ETITLE: TS BOND ANGLE DIHED IMPRP ELECT VDW BOUNDARY MISC KINETIC TOTAL TEMP POTENTIAL TOTALAVG TEMPAVG PRESSURE GPRESSURE VOLUME PRESSAVG GPRESSAVG
ENERGY: 0 4.5191 12.0262 11.3957 0.0000 -10529.7318 1449.3825 0.0000 0.0000 1729.5540 -7322.8544 298.3209 -9052.4084 -7322.8544 298.3209 417.6888 481.3328 29759.2194 417.6888 481.3328
ENERGY: 300000 5.1246 11.5248 7.4804 0.0000 -10533.5999 1402.6293 0.0000 0.0000 1779.6568 -7327.1839 306.9628 -9106.8407 -7334.1601 302.1604 -457.1222 -372.7055 30441.1189 -188.2681 -119.3043
ENERGY: 600000 5.6478 7.4246 2.8469 0.0000 -10443.3532 1441.8296 0.0000 0.0000 1739.5140 -7246.0902 300.0388 -8985.6042 -7320.7750 300.9276 565.3881 527.7903 29932.7807 22.8538 76.8045
ENERGY: 900000 4.7773 9.8633 5.0478 0.0000 -10557.7644 1487.7498 0.0000 0.0000 1722.2265 -7328.0997 297.0570 -9050.3262 -7325.9684 300.1095 525.1982 581.2081 30115.5203 -46.1781 10.8466
ENERGY: 1200000 4.9735 12.7444 8.9526 0.0000 -10592.8707 1521.9982 0.0000 0.0000 1759.3794 -7284.8226 303.4653 -9044.2020 -7322.9450 300.9714 726.9781 776.6154 30088.3688 87.3602 145.7517
ENERGY: 1500000 4.7314 8.5020 7.2500 0.0000 -10500.1507 1375.1727 0.0000 0.0000 1774.8674 -7329.6273 306.1367 -9104.4947 -7323.3396 300.8352 -477.3571 -400.4976 29948.2504 -8.1735 56.6475
TCL: Running FEP window  14: Lambda1 0.34999999999999964 Lambda2 0.29999999999999966 [dLambda -0.04999999999999999]
TCL: Setting parameter firsttimestep to 0
TCL: Setting parameter alchLambda to 0.34999999999999964
Info: NONBONDED TABLE R-SQUARED SPACING: 0.0625
Info: NONBONDED TABLE SIZE: 705 POINTS
TCL: Setting parameter alchLambda2 to 0.29999999999999966
Info: NONBONDED TABLE R-SQUARED SPACING: 0.0625
Info: NONBONDED TABLE SIZE: 705 POINTS
TCL: Running for 1500000 steps
ETITLE: TS BOND ANGLE DIHED IMPRP ELECT VDW BOUNDARY MISC KINETIC TOTAL TEMP POTENTIAL TOTALAVG TEMPAVG PRESSURE GPRESSURE VOLUME PRESSAVG GPRESSAVG
ENERGY: 0 4.7314 8.5020 7.2500 0.0000 -10500.1510 1375.7970 0.0000 0.0000 1773.9959 -7329.8747 305.9864 -9103.8706 -7329.8747 305.9864 -505.7628 -406.4549 29948.2504 -505.7628 -406.4549
ENERGY: 300000 10.1689 12.9684 8.4224 0.0000 -10494.8795 1397.0764 0.0000 0.0000 1763.1422 -7303.1012 304.1143 -9066.2434 -7331.7912 303.1804 8.6607 22.3462 29753.6529 155.2661 223.4891
ENERGY: 600000 7.4690 11.4974 3.0395 0.0000 -10527.4509 1396.5730 0.0000 0.0000 1740.8182 -7368.0539 300.2638 -9108.8721 -7331.9811 301.5720 -248.4092 -168.1842 29788.4616 226.7391 296.0104
ENERGY: 900000 6.3456 8.9681 8.3975 0.0000 -10445.8946 1396.5814 0.0000 0.0000 1703.3011 -7322.3010 293.7927 -9025.6021 -7341.3812 301.3380 210.1866 335.8499 29323.7074 308.1914 376.6846
ENERGY: 1200000 7.6378 10.7172 8.0287 0.0000 -10508.6212 1478.9602 0.0000 0.0000 1756.3214 -7246.9559 302.9378 -9003.2773 -7323.5570 300.6625 712.3865 795.2201 29995.3437 250.1408 318.9774
ENERGY: 1500000 9.0289 10.6543 5.6226 0.0000 -10443.7247 1320.4526 0.0000 0.0000 1692.2223 -7405.7438 291.8818 -9097.9662 -7333.7246 299.9927 -1219.4711 -1165.9992 30138.1424 83.5626 148.9252
TCL: Running FEP window  15: Lambda1 0.29999999999999966 Lambda2 0.24999999999999967 [dLambda -0.04999999999999999]
TCL: Setting parameter firsttimestep to 0
TCL: Setting parameter alchLambda to 0.29999999999999966
Info: NONBONDED TABLE R-SQUARED SPACING: 0.0625
Info: NONBONDED TABLE SIZE: 705 POINTS
TCL: Setting parameter alchLambda2 to 0.24999999999999967
Info: NONBONDED TABLE R-SQUARED SPACING: 0.0625
Info: NONBONDED TABLE SIZE: 705 POINTS
TCL: Running for 1500000 steps
ETITLE: TS BOND ANGLE DIHED IMPRP ELECT VDW BOUNDARY MISC KINETIC TOTAL TEMP POTENTIAL TOTALAVG TEMPAVG PRESSURE GPRESSURE VOLUME PRESSAVG GPRESSAVG
ENERGY: 0 9.0289 10.6543 5.6226 0.0000 -10443.7241 1320.6928 0.0000 0.0000 1691.3578 -7406.3676 291.7326 -9097.7254 -7406.3676 291.7326 -1247.7059 -1173.2680 30138.1424 -1247.7059 -1173.2680
ENERGY: 300000 8.2617 8.4486 6.2154 0.0000 -10508.6232 1444.1465 0.0000 0.0000 1807.5621 -7233.9889 311.7760 -9041.5509 -7314.7486 300.0379 90.4671 138.7821 30090.3495 -436.1731 -388.0150
ENERGY: 600000 5.7896 11.8884 10.1368 0.0000 -10441.0526 1353.5792 0.0000 0.0000 1789.8402 -7269.8184 308.7193 -9059.6586 -7326.0830 301.3329 -616.6244 -529.6525 29852.1628 -357.5185 -289.7381
ENERGY: 900000 4.1158 17.8282 9.3393 0.0000 -10441.1925 1373.2820 0.0000 0.0000 1756.5145 -7280.1127 302.9711 -9036.6272 -7309.8174 301.6256 -456.4651 -400.5493 30169.9010 -272.7828 -214.5741
ENERGY: 1200000 3.3522 11.8247 11.7045 0.0000 -10502.1777 1382.1726 0.0000 0.0000 1684.8505 -7408.2732 290.6102 -9093.1237 -7320.5567 299.7833 -240.0240 -206.2730 29907.5625 -294.7354 -237.4641
ENERGY: 1500000 5.6175 11.8699 7.6348 0.0000 -10475.5121 1439.4072 0.0000 0.0000 1734.8006 -7276.1822 299.2258 -9010.9827 -7309.4326 300.7930 372.5302 434.8220 29696.4819 -240.5039 -183.8563
TCL: Running FEP window  16: Lambda1 0.24999999999999967 Lambda2 0.19999999999999968 [dLambda -0.04999999999999999]
TCL: Setting parameter firsttimestep to 0
TCL: Setting parameter alchLambda to 0.24999999999999967
Info: NONBONDED TABLE R-SQUARED SPACING: 0.0625
Info: NONBONDED TABLE SIZE: 705 POINTS
TCL: Setting parameter alchLambda2 to 0.19999999999999968
Info: NONBONDED TABLE R-SQUARED SPACING: 0.0625
Info: NONBONDED TABLE SIZE: 705 POINTS
TCL: Running for 1500000 steps
ETITLE: TS BOND ANGLE DIHED IMPRP ELECT VDW BOUNDARY MISC KINETIC TOTAL TEMP POTENTIAL TOTALAVG TEMPAVG PRESSURE GPRESSURE VOLUME PRESSAVG GPRESSAVG
ENERGY: 0 5.6175 11.8699 7.6348 0.0000 -10475.5114 1439.2146 0.0000 0.0000 1733.9185 -7277.2561 299.0737 -9011.1746 -7277.2561 299.0737 338.9657 427.8862 29696.4819 338.9657 427.8862
ENERGY: 300000 3.5257 10.7727 4.2394 0.0000 -10626.2108 1529.8798 0.0000 0.0000 1803.2504 -7274.5428 311.0324 -9077.7932 -7287.0574 303.9727 937.4653 997.2563 29787.0089 436.6587 499.6432
ENERGY: 600000 7.6962 14.5891 6.3191 0.0000 -10414.1959 1388.6503 0.0000 0.0000 1768.7232 -7228.2179 305.0770 -8996.9412 -7283.5781 303.3877 287.3005 259.9836 29339.7365 280.9119 319.3745
ENERGY: 900000 4.1158 9.7314 9.9012 0.0000 -10412.3003 1335.7827 0.0000 0.0000 1765.7110 -7287.0582 304.5574 -9052.7692 -7281.7774 304.4297 -786.4728 -672.6466 29968.7589 176.3944 224.7330
ENERGY: 1200000 6.0967 9.3574 3.9563 0.0000 -10450.8565 1397.5691 0.0000 0.0000 1722.2754 -7311.6015 297.0654 -9033.8769 -7289.0751 303.2299 -374.1958 -267.3560 29911.4386 63.8444 122.4976
ENERGY: 1500000 6.6759 8.8241 8.4331 0.0000 -10517.2996 1410.9684 0.0000 0.0000 1729.2494 -7353.1488 298.2683 -9082.3981 -7294.6165 302.7453 -117.3911 -62.8445 29756.4588 85.0183 139.4758
TCL: Running FEP window  17: Lambda1 0.19999999999999968 Lambda2 0.1499999999999997 [dLambda -0.04999999999999999]
TCL: Setting parameter firsttimestep to 0
TCL: Setting parameter alchLambda to 0.19999999999999968
Info: NONBONDED TABLE R-SQUARED SPACING: 0.0625
Info: NONBONDED TABLE SIZE: 705 POINTS
TCL: Setting parameter alchLambda2 to 0.1499999999999997
Info: NONBONDED TABLE R-SQUARED SPACING: 0.0625
Info: NONBONDED TABLE SIZE: 705 POINTS
TCL: Running for 1500000 steps
ETITLE: TS BOND ANGLE DIHED IMPRP ELECT VDW BOUNDARY MISC KINETIC TOTAL TEMP POTENTIAL TOTALAVG TEMPAVG PRESSURE GPRESSURE VOLUME PRESSAVG GPRESSAVG
ENERGY: 0 6.6759 8.8241 8.4331 0.0000 -10517.3007 1411.8078 0.0000 0.0000 1728.4059 -7353.1540 298.1229 -9081.5599 -7353.1540 298.1229 -141.7126 -66.9909 29756.4588 -141.7126 -66.9909
ENERGY: 300000 4.5947 13.9409 9.0536 0.0000 -10549.0090 1457.6922 0.0000 0.0000 1735.1130 -7328.6146 299.2797 -9063.7276 -7308.5570 300.7184 403.8316 457.8716 29768.7664 -17.3322 47.8522
ENERGY: 600000 2.3043 7.7455 5.9917 0.0000 -10492.7669 1403.9547 0.0000 0.0000 1758.3712 -7314.3995 303.2914 -9072.7707 -7331.7431 299.4322 31.5979 38.8712 29808.1458 -23.9480 34.5200
ENERGY: 900000 6.2309 10.1317 7.6985 0.0000 -10561.1274 1415.9158 0.0000 0.0000 1698.1385 -7423.0119 292.9022 -9121.1505 -7346.7058 298.6828 11.1285 24.8888 29603.6646 53.3244 102.6651
ENERGY: 1200000 9.8029 10.0604 5.0667 0.0000 -10584.8719 1463.2104 0.0000 0.0000 1781.2008 -7315.5307 307.2291 -9096.7315 -7344.3050 298.6517 168.0226 221.1092 29446.1290 25.5267 79.8613
ENERGY: 1500000 7.8366 7.7595 8.3824 0.0000 -10429.5316 1347.6940 0.0000 0.0000 1724.1688 -7333.6902 297.3920 -9057.8590 -7337.5008 298.6788 -828.1127 -769.6310 29911.9907 -16.2511 46.1571
TCL: Running FEP window  18: Lambda1 0.1499999999999997 Lambda2 0.09999999999999969 [dLambda -0.05 ]
TCL: Setting parameter firsttimestep to 0
TCL: Setting parameter alchLambda to 0.1499999999999997
Info: NONBONDED TABLE R-SQUARED SPACING: 0.0625
Info: NONBONDED TABLE SIZE: 705 POINTS
TCL: Setting parameter alchLambda2 to 0.09999999999999969
Info: NONBONDED TABLE R-SQUARED SPACING: 0.0625
Info: NONBONDED TABLE SIZE: 705 POINTS
TCL: Running for 1500000 steps
ETITLE: TS BOND ANGLE DIHED IMPRP ELECT VDW BOUNDARY MISC KINETIC TOTAL TEMP POTENTIAL TOTALAVG TEMPAVG PRESSURE GPRESSURE VOLUME PRESSAVG GPRESSAVG
ENERGY: 0 7.8366 7.7595 8.3824 0.0000 -10429.5322 1347.4948 0.0000 0.0000 1723.3224 -7334.7364 297.2460 -9058.0589 -7334.7364 297.2460 -871.6040 -775.3733 29911.9907 -871.6040 -775.3733
ENERGY: 300000 5.1902 9.4114 5.4267 0.0000 -10564.1664 1516.3788 0.0000 0.0000 1799.3245 -7228.4348 310.3552 -9027.7593 -7299.7514 302.6854 869.8933 978.9149 29835.4904 -370.6040 -279.1961
ENERGY: 600000 6.6775 11.8740 4.8683 0.0000 -10568.7691 1438.8741 0.0000 0.0000 1729.0620 -7377.4133 298.2360 -9106.4753 -7310.0531 301.7542 -280.2468 -215.3010 30165.1898 -239.1758 -158.8096
ENERGY: 900000 3.4019 12.9108 8.0857 0.0000 -10594.3756 1439.0711 0.0000 0.0000 1714.1285 -7416.7775 295.6602 -9130.9060 -7312.2100 302.9120 -331.3342 -214.1448 29827.5312 -80.0204 2.1458
ENERGY: 1200000 6.7519 11.4289 10.4593 0.0000 -10457.1909 1386.7508 0.0000 0.0000 1760.5623 -7281.2377 303.6693 -9041.8001 -7315.0816 301.7350 -295.8452 -197.0422 30222.5550 -51.8666 25.7665
ENERGY: 1500000 9.3865 15.4378 7.8575 0.0000 -10410.4371 1334.6969 0.0000 0.0000 1755.9313 -7287.1271 302.8705 -9043.0584 -7316.6108 301.3479 -636.4272 -550.2400 29545.3124 -142.6286 -65.5327
TCL: Running FEP window  19: Lambda1 0.09999999999999969 Lambda2 0.049999999999999684 [dLambda -0.05 ]
TCL: Setting parameter firsttimestep to 0
TCL: Setting parameter alchLambda to 0.09999999999999969
Info: NONBONDED TABLE R-SQUARED SPACING: 0.0625
Info: NONBONDED TABLE SIZE: 705 POINTS
TCL: Setting parameter alchLambda2 to 0.049999999999999684
Info: NONBONDED TABLE R-SQUARED SPACING: 0.0625
Info: NONBONDED TABLE SIZE: 705 POINTS
TCL: Running for 1500000 steps
ETITLE: TS BOND ANGLE DIHED IMPRP ELECT VDW BOUNDARY MISC KINETIC TOTAL TEMP POTENTIAL TOTALAVG TEMPAVG PRESSURE GPRESSURE VOLUME PRESSAVG GPRESSAVG
ENERGY: 0 9.3865 15.4378 7.8575 0.0000 -10410.4362 1335.5447 0.0000 0.0000 1755.0741 -7287.1356 302.7227 -9042.2097 -7287.1356 302.7227 -631.5303 -548.3108 29545.3124 -631.5303 -548.3108
ENERGY: 300000 5.0308 12.8894 4.7649 0.0000 -10671.3258 1528.0198 0.0000 0.0000 1772.7248 -7347.8961 305.7672 -9120.6209 -7355.6924 300.2536 653.6921 737.0585 29360.8300 -119.2553 -33.8280
ENERGY: 600000 2.8430 12.6663 7.1477 0.0000 -10370.3501 1294.5595 0.0000 0.0000 1716.9309 -7336.2026 296.1436 -9053.1336 -7325.2446 300.8166 -990.7515 -924.3117 29532.7033 -394.2631 -331.9870
ENERGY: 900000 9.5681 16.0826 7.9045 0.0000 -10558.3215 1454.1212 0.0000 0.0000 1803.2590 -7267.3861 311.0338 -9070.6451 -7318.5543 301.4221 368.5672 419.3997 29358.8559 -297.4506 -228.9593
ENERGY: 1200000 7.2921 9.8236 14.8399 0.0000 -10479.9014 1347.4308 0.0000 0.0000 1698.4937 -7402.0213 292.9635 -9100.5150 -7323.9896 301.0028 -494.5005 -447.3573 29400.3384 -309.2648 -245.3370
ENERGY: 1500000 6.3781 10.9765 6.4230 0.0000 -10356.3978 1378.0599 0.0000 0.0000 1766.9124 -7187.6480 304.7646 -8954.5603 -7315.3997 301.3681 85.5004 69.5051 29999.0832 -307.8808 -248.1727
TCL: Running FEP window  20: Lambda1 0.049999999999999684 Lambda2 0.0    [dLambda -0.049999999999999684]
TCL: Setting parameter firsttimestep to 0
TCL: Setting parameter alchLambda to 0.049999999999999684
Info: NONBONDED TABLE R-SQUARED SPACING: 0.0625
Info: NONBONDED TABLE SIZE: 705 POINTS
TCL: Setting parameter alchLambda2 to 0.0
Info: NONBONDED TABLE R-SQUARED SPACING: 0.0625
Info: NONBONDED TABLE SIZE: 705 POINTS
TCL: Running for 1500000 steps
ETITLE: TS BOND ANGLE DIHED IMPRP ELECT VDW BOUNDARY MISC KINETIC TOTAL TEMP POTENTIAL TOTALAVG TEMPAVG PRESSURE GPRESSURE VOLUME PRESSAVG GPRESSAVG
ENERGY: 0 6.3781 10.9765 6.4230 0.0000 -10356.3980 1378.2178 0.0000 0.0000 1766.0461 -7188.3565 304.6152 -8954.4026 -7188.3565 304.6152 -19.6631 63.5557 29999.0832 -19.6631 63.5557
ENERGY: 300000 5.0980 11.6827 4.6379 0.0000 -10526.3254 1374.1848 0.0000 0.0000 1732.1935 -7398.5286 298.7761 -9130.7221 -7326.7825 297.3943 -537.0992 -433.7342 29617.7015 -112.3897 -48.7051
ENERGY: 600000 4.6188 8.5807 7.5022 0.0000 -10617.1544 1511.2809 0.0000 0.0000 1691.6086 -7393.5633 291.7759 -9085.1718 -7333.0324 299.2259 690.5223 786.2515 29743.3747 136.9855 207.5851
ENERGY: 900000 5.5366 9.8280 9.9435 0.0000 -10566.7463 1543.1796 0.0000 0.0000 1739.5352 -7258.7235 300.0425 -8998.2586 -7321.1012 299.4815 972.4386 1066.4374 29760.5977 161.9391 235.1753
ENERGY: 1200000 5.1162 9.5022 7.0095 0.0000 -10390.2243 1320.6866 0.0000 0.0000 1730.4799 -7317.4300 298.4806 -9047.9100 -7309.5418 299.7920 -992.4712 -860.5943 30152.9149 84.4748 164.9496
ENERGY: 1500000 5.8145 9.6302 5.9028 0.0000 -10554.9014 1454.7150 0.0000 0.0000 1820.4859 -7258.3530 314.0052 -9078.8389 -7313.4772 300.1794 86.6064 194.9383 29904.2977 112.8924 195.3016
TCL: Exiting due to exit command.
