Info: SIMULATION PARAMETERS:
Info: TIMESTEP               2
Info: NUMBER OF STEPS        0
Info: STEPS PER CYCLE        10
Info: PERIODIC CELL BASIS 1  28.9391 0 0
Info: PERIODIC CELL BASIS 2  0 33.1902 0
Info: PERIODIC CELL BASIS 3  0 0 31.3698
Info: PERIODIC CELL CENTER   0 0 0
Info: WRAPPING WATERS AROUND PERIODIC BOUNDARIES ON OUTPUT.
Info: WRAPPING ALL CLUSTERS AROUND PERIODIC BOUNDARIES ON OUTPUT.
Info: FIRST LDB TIMESTEP     50
Info: LAST LDB TIMESTEP     -1
Info: HOM BACKGROUND SCALING 1
Info: PME BACKGROUND SCALING 1
Info: MIN ATOMS PER PATCH    40
Info: EMPTY PATCH LOAD       40 ATOMS
Info: VELOCITY FILE          mobley_9460824_equil.vel
Info: CENTER OF MASS MOVING INITIALLY? NO
Info: DIELECTRIC             1
Info: EXCLUDE                SCALED ONE-FOUR
Info: 1-4 ELECTROSTATICS SCALED BY 0.833333
Info: MODIFIED 1-4 VDW PARAMETERS WILL BE USED
Info: DCD FILENAME           mobley_9460824_prod.dcd
Info: DCD FREQUENCY          100000
Info: DCD FIRST STEP         100000
Info: DCD FILE WILL CONTAIN UNIT CELL DATA
Info: XST FILENAME           mobley_9460824_prod.xst
Info: XST FREQUENCY          100000
Info: NO VELOCITY DCD OUTPUT
Info: NO FORCE DCD OUTPUT
Info: OUTPUT FILENAME        mobley_9460824_prod
Info: BINARY OUTPUT FILES WILL BE USED
Info: RESTART FILENAME       mobley_9460824_prod.restart
Info: RESTART FREQUENCY      100000
Info: BINARY RESTART FILES WILL BE USED
Info: CUTOFF                 9
Info: PAIRLIST DISTANCE      11
Info: PAIRLIST SHRINK RATE   0.01
Info: PAIRLIST GROW RATE     0.01
Info: PAIRLIST TRIGGER       0.3
Info: PAIRLISTS PER CYCLE    2
Info: PAIRLISTS ENABLED
Info: MARGIN                 2
Info: HYDROGEN GROUP CUTOFF  2.5
Info: PATCH DIMENSION        15.5
Info: ENERGY OUTPUT STEPS    100000
Info: ENERGY EVALUATION STEPS    100000
Info: OUTPUT ENERGY PRECISION 4
Info: CROSSTERM ENERGY INCLUDED IN DIHEDRAL
Info: TIMING OUTPUT STEPS    1000000
Info: PRESSURE OUTPUT STEPS  100000
Info: ALCHEMICAL FEP ON
Info: FEP CURRENT LAMBDA VALUE     0
Info: FEP COMPARISON LAMBDA VALUE  0.05
Info: FEP INTRA-ALCHEMICAL NON-BONDED INTERACTIONS WILL BE RETAINED
Info: FEP INTRA-ALCHEMICAL BONDED INTERACTIONS WILL BE RETAINED
Info: FEP VDW SHIFTING COEFFICIENT 5
Info: FEP ELEC. ACTIVE FOR ANNIHILATED PARTICLES BETWEEN LAMBDA = 0 AND LAMBDA = 0.5
Info: FEP ELEC. ACTIVE FOR EXNIHILATED PARTICLES BETWEEN LAMBDA = 0.5 AND LAMBDA = 1
Info: FEP VDW ACTIVE FOR ANNIHILATED PARTICLES BETWEEN LAMBDA = 0 AND LAMBDA = 1
Info: FEP VDW ACTIVE FOR EXNIHILATED PARTICLES BETWEEN LAMBDA = 0 AND LAMBDA = 1
Info: FEP BOND ACTIVE FOR ANNIHILATED PARTICLES BETWEEN LAMBDA = 1 AND LAMBDA = 1
Info: FEP BOND ACTIVE FOR EXNIHILATED PARTICLES BETWEEN LAMBDA = 0 AND LAMBDA = 0
Info: LANGEVIN DYNAMICS ACTIVE
Info: LANGEVIN TEMPERATURE   300
Info: LANGEVIN USING BBK INTEGRATOR
Info: LANGEVIN DAMPING COEFFICIENT IS 1 INVERSE PS
Info: LANGEVIN DYNAMICS APPLIED TO HYDROGENS
Info: LANGEVIN PISTON PRESSURE CONTROL ACTIVE
Info:        TARGET PRESSURE IS 1.01325 BAR
Info:     OSCILLATION PERIOD IS 50 FS
Info:             DECAY TIME IS 25 FS
Info:     PISTON TEMPERATURE IS 300 K
Info:       PRESSURE CONTROL IS GROUP-BASED
Info:    INITIAL STRAIN RATE IS -0.000256261 -0.000256261 -0.000256261
Info:       CELL FLUCTUATION IS ISOTROPIC
Info: PARTICLE MESH EWALD (PME) ACTIVE
Info: PME TOLERANCE               1e-06
Info: PME EWALD COEFFICIENT       0.348832
Info: PME INTERPOLATION ORDER     4
Info: PME GRID DIMENSIONS         32 36 32
Info: PME MAXIMUM GRID SPACING    1
Info: PME CALCULATION WILL BE PERFORMED ON GPU
Info: FULL ELECTROSTATIC EVALUATION FREQUENCY      2
Info: USING VERLET I (r-RESPA) MTS SCHEME.
Info: C1 SPLITTING OF LONG RANGE ELECTROSTATICS
Info: PLACING ATOMS IN PATCHES BY HYDROGEN GROUPS
Info: RIGID BONDS TO HYDROGEN : ALL
Info:         ERROR TOLERANCE : 1e-08
Info:          MAX ITERATIONS : 100
Info: RIGID WATER USING SETTLE ALGORITHM
Info: RANDOM NUMBER SEED     1744093051
Info: USE HYDROGEN BONDS?    NO
Info: Using AMBER format force field!
Info: AMBER PARM FILE        mobley_9460824.prmtop
Info: COORDINATE PDB         mobley_9460824.pdb
Info: Exclusions will be read from PARM file!
Info: SCNB (VDW SCALING)     2
Info: USING ARITHMETIC MEAN TO COMBINE L-J SIGMA PARAMETERS
Info: BINARY COORDINATES     mobley_9460824_equil.coor
Info: SUMMARY OF PARAMETERS:
Info: 11 BONDS
Info: 18 ANGLES
Info:   18 HARMONIC
Info:   0 COSINE-BASED
Info: 10 DIHEDRAL
Info: 0 IMPROPER
Info: 0 CROSSTERM
Info: 0 VDW
Info: 45 VDW_PAIRS
Info: 0 NBTHOLE_PAIRS
Info: To read alchdata from file: mobley_9460824.pdb
Info: To read alchflag data from column: 5
Info: STRUCTURE SUMMARY:
Info: 2913 ATOMS
Info: 2912 BONDS
Info: 52 ANGLES
Info: 61 DIHEDRALS
Info: 0 IMPROPERS
Info: 0 CROSSTERMS
Info: 3015 EXCLUSIONS
Info: 2900 RIGID BONDS
Info: ALCH: 0 ATOMS TO DISAPPEAR IN FINAL STATE
Info: ALCH: 30 ATOMS TO APPEAR IN FINAL STATE
Info: 5839 DEGREES OF FREEDOM
Info: 974 HYDROGEN GROUPS
Info: 4 ATOMS IN LARGEST HYDROGEN GROUP
Info: 974 MIGRATION GROUPS
Info: 4 ATOMS IN LARGEST MIGRATION GROUP
Info: TOTAL MASS = 17573.7 amu
Info: TOTAL CHARGE = 0.000200013 e
Info: MASS DENSITY = 0.968538 g/cm^3
Info: ATOM DENSITY = 0.0966794 atoms/A^3
Info: ADDED 0 IMPLICIT EXCLUSIONS
Info: NONBONDED TABLE R-SQUARED SPACING: 0.0625
Info: NONBONDED TABLE SIZE: 705 POINTS
Info: REMOVING COM VELOCITY 0.0762114 0.0927115 0.302059
Info: Use 3D box decompostion in PME FFT.
Info: Updated CUDA force table with 4096 elements.
Info: Updated CUDA LJ table with 9 x 9 elements.
Info: Found 31 unique exclusion lists needing 112 bytes
TCL: Running for 1500000 steps
ETITLE: TS BOND ANGLE DIHED IMPRP ELECT VDW BOUNDARY MISC KINETIC TOTAL TEMP POTENTIAL TOTALAVG TEMPAVG PRESSURE GPRESSURE VOLUME PRESSAVG GPRESSAVG
ENERGY: 0 6.6501 15.3716 20.8354 0.0000 -10587.3114 1469.0332 0.0000 0.0000 1750.7932 -7324.6278 301.7774 -9075.4210 -7324.6278 301.7774 520.7942 596.3919 30130.5171 520.7942 596.3919
ENERGY: 300000 1.6287 15.4299 24.7624 0.0000 -10540.9957 1367.4780 0.0000 0.0000 1732.4674 -7399.2292 298.6187 -9131.6967 -7372.6780 297.8019 -424.3360 -341.9674 29668.9600 -287.4282 -214.5460
ENERGY: 600000 5.9690 10.8019 27.6406 0.0000 -10527.5382 1412.0251 0.0000 0.0000 1768.9962 -7302.1054 304.9150 -9071.1016 -7361.0858 299.0456 -44.4993 -7.8301 29868.1159 -373.7505 -301.6503
ENERGY: 900000 1.4147 12.3868 23.7192 0.0000 -10469.5360 1376.5776 0.0000 0.0000 1732.8068 -7322.6309 298.6772 -9055.4377 -7344.0056 299.3441 -269.9167 -180.5318 29850.4800 -325.8210 -248.7084
ENERGY: 1200000 2.2313 14.3871 22.8308 0.0000 -10526.0694 1431.5648 0.0000 0.0000 1745.2688 -7309.7866 300.8252 -9055.0554 -7340.2110 300.1141 360.7207 338.5721 29640.7091 -262.8936 -194.9005
ENERGY: 1500000 2.1400 15.9227 26.1572 0.0000 -10595.9052 1407.4507 0.0000 0.0000 1771.8547 -7372.3799 305.4077 -9144.2346 -7342.5101 300.6323 -161.8668 -153.9360 29606.8016 -158.9074 -92.2852
TCL: Running FEP window   2: Lambda1 0.05   Lambda2 0.1    [dLambda 0.05  ]
TCL: Setting parameter firsttimestep to 0
TCL: Setting parameter alchLambda to 0.05
Info: NONBONDED TABLE R-SQUARED SPACING: 0.0625
Info: NONBONDED TABLE SIZE: 705 POINTS
TCL: Setting parameter alchLambda2 to 0.1
Info: NONBONDED TABLE R-SQUARED SPACING: 0.0625
Info: NONBONDED TABLE SIZE: 705 POINTS
TCL: Running for 1500000 steps
ETITLE: TS BOND ANGLE DIHED IMPRP ELECT VDW BOUNDARY MISC KINETIC TOTAL TEMP POTENTIAL TOTALAVG TEMPAVG PRESSURE GPRESSURE VOLUME PRESSAVG GPRESSAVG
ENERGY: 0 2.1400 15.9227 26.1572 0.0000 -10595.9038 1413.1174 0.0000 0.0000 1770.9939 -7367.5726 305.2594 -9138.5665 -7367.5726 305.2594 -220.3100 -136.2165 29606.8016 -220.3100 -136.2165
ENERGY: 300000 5.0905 19.9058 21.1095 0.0000 -10582.3506 1452.8314 0.0000 0.0000 1758.1631 -7325.2503 303.0477 -9083.4134 -7365.3714 297.3931 299.9285 388.8584 29389.5326 -181.9715 -114.1324
ENERGY: 600000 2.5863 21.9284 23.7638 0.0000 -10698.4972 1531.4071 0.0000 0.0000 1780.1078 -7338.7038 306.8303 -9118.8116 -7362.6802 300.4247 846.5852 940.3977 29412.1375 124.0947 190.1398
ENERGY: 900000 4.2284 17.7528 23.3682 0.0000 -10720.6159 1544.1460 0.0000 0.0000 1714.6272 -7416.4933 295.5436 -9131.1205 -7372.5174 300.4916 1049.4969 1109.9914 29372.1655 191.0320 255.8299
ENERGY: 1200000 6.0300 11.7260 23.5891 0.0000 -10412.4656 1304.9859 0.0000 0.0000 1770.0354 -7296.0991 305.0941 -9066.1345 -7360.8897 301.1216 -1036.4361 -943.0782 29949.2871 54.3507 123.5149
ENERGY: 1500000 2.4545 14.9965 21.7520 0.0000 -10575.7098 1415.1357 0.0000 0.0000 1677.0572 -7444.3139 289.0679 -9121.3711 -7370.0975 300.2650 -108.2986 -56.6937 29680.4490 33.8703 104.0110
TCL: Running FEP window   3: Lambda1 0.1    Lambda2 0.15000000000000002 [dLambda 0.05000000000000002]
TCL: Setting parameter firsttimestep to 0
TCL: Setting parameter alchLambda to 0.1
Info: NONBONDED TABLE R-SQUARED SPACING: 0.0625
Info: NONBONDED TABLE SIZE: 705 POINTS
TCL: Setting parameter alchLambda2 to 0.15000000000000002
Info: NONBONDED TABLE R-SQUARED SPACING: 0.0625
Info: NONBONDED TABLE SIZE: 705 POINTS
TCL: Running for 1500000 steps
ETITLE: TS BOND ANGLE DIHED IMPRP ELECT VDW BOUNDARY MISC KINETIC TOTAL TEMP POTENTIAL TOTALAVG TEMPAVG PRESSURE GPRESSURE VOLUME PRESSAVG GPRESSAVG
ENERGY: 0 2.4545 14.9965 21.7520 0.0000 -10575.7108 1420.9874 0.0000 0.0000 1676.1985 -7439.3219 288.9198 -9115.5203 -7439.3219 288.9198 -117.3056 -32.9661 29680.4490 -117.3056 -32.9661
ENERGY: 300000 4.2626 11.2256 21.7300 0.0000 -10627.1936 1513.5179 0.0000 0.0000 1778.6760 -7297.7815 306.5835 -9076.4575 -7342.3095 303.9256 749.6202 829.6154 29788.3979 2.9146 94.2981
ENERGY: 600000 4.5946 25.9726 23.0224 0.0000 -10378.8243 1341.3848 0.0000 0.0000 1746.3633 -7237.4866 301.0139 -8983.8499 -7347.2634 301.3327 -334.7472 -259.0207 30219.9075 -187.2368 -117.6543
ENERGY: 900000 4.2233 24.0427 20.5811 0.0000 -10606.8155 1460.9984 0.0000 0.0000 1733.2063 -7363.7636 298.7460 -9096.9699 -7349.4940 301.5883 666.8224 647.9232 29337.7712 -30.9971 34.0060
ENERGY: 1200000 4.0058 13.4839 25.0209 0.0000 -10467.0189 1383.0719 0.0000 0.0000 1729.5008 -7311.9357 298.1073 -9041.4365 -7349.3910 301.3321 -149.2365 -142.4637 30067.8783 -54.0469 7.3297
ENERGY: 1500000 6.7586 14.0801 22.2050 0.0000 -10618.4727 1448.1125 0.0000 0.0000 1693.0235 -7434.2930 291.8199 -9127.3164 -7344.1401 301.6934 -49.3018 85.0270 29771.6013 -38.0031 23.6831
TCL: Running FEP window   4: Lambda1 0.15000000000000002 Lambda2 0.2    [dLambda 0.04999999999999999]
TCL: Setting parameter firsttimestep to 0
TCL: Setting parameter alchLambda to 0.15000000000000002
Info: NONBONDED TABLE R-SQUARED SPACING: 0.0625
Info: NONBONDED TABLE SIZE: 705 POINTS
TCL: Setting parameter alchLambda2 to 0.2
Info: NONBONDED TABLE R-SQUARED SPACING: 0.0625
Info: NONBONDED TABLE SIZE: 705 POINTS
TCL: Running for 1500000 steps
ETITLE: TS BOND ANGLE DIHED IMPRP ELECT VDW BOUNDARY MISC KINETIC TOTAL TEMP POTENTIAL TOTALAVG TEMPAVG PRESSURE GPRESSURE VOLUME PRESSAVG GPRESSAVG
ENERGY: 0 6.7586 14.0801 22.2050 0.0000 -10618.4739 1449.3059 0.0000 0.0000 1692.1682 -7433.9559 291.6725 -9126.1242 -7433.9559 291.6725 -5.8576 94.6093 29771.6013 -5.8576 94.6093
ENERGY: 300000 5.3770 13.0959 25.6459 0.0000 -10640.2692 1475.1993 0.0000 0.0000 1768.7835 -7352.1676 304.8783 -9120.9510 -7359.5191 299.9699 274.0024 298.2703 29806.5403 -13.4525 45.3256
ENERGY: 600000 4.9415 16.1970 23.4787 0.0000 -10515.1623 1371.0689 0.0000 0.0000 1768.5862 -7330.8899 304.8443 -9099.4761 -7356.4789 300.4481 -447.5948 -352.3354 29875.5224 4.7138 64.5347
ENERGY: 900000 3.7987 12.4437 29.5863 0.0000 -10434.5707 1382.8150 0.0000 0.0000 1728.0788 -7277.8482 297.8622 -9005.9270 -7337.0764 301.1527 -190.4472 -183.1676 30235.0685 -96.5019 -47.2103
ENERGY: 1200000 4.3304 13.8086 24.2461 0.0000 -10470.0249 1373.2455 0.0000 0.0000 1756.9207 -7297.4736 302.8336 -9054.3943 -7342.5498 300.2982 -161.7343 -115.1713 29728.8235 -167.3026 -110.0163
ENERGY: 1500000 4.3756 15.5450 24.9296 0.0000 -10637.4617 1423.6922 0.0000 0.0000 1766.5146 -7402.4047 304.4873 -9168.9193 -7350.1770 300.4169 112.2181 211.0144 29595.9428 -97.3393 -37.3475
TCL: Running FEP window   5: Lambda1 0.2    Lambda2 0.25   [dLambda 0.04999999999999999]
TCL: Setting parameter firsttimestep to 0
TCL: Setting parameter alchLambda to 0.2
Info: NONBONDED TABLE R-SQUARED SPACING: 0.0625
Info: NONBONDED TABLE SIZE: 705 POINTS
TCL: Setting parameter alchLambda2 to 0.25
Info: NONBONDED TABLE R-SQUARED SPACING: 0.0625
Info: NONBONDED TABLE SIZE: 705 POINTS
TCL: Running for 1500000 steps
ETITLE: TS BOND ANGLE DIHED IMPRP ELECT VDW BOUNDARY MISC KINETIC TOTAL TEMP POTENTIAL TOTALAVG TEMPAVG PRESSURE GPRESSURE VOLUME PRESSAVG GPRESSAVG
ENERGY: 0 4.3756 15.5450 24.9296 0.0000 -10637.4632 1423.7785 0.0000 0.0000 1765.6622 -7403.1723 304.3404 -9168.8345 -7403.1723 304.3404 125.1070 217.3786 29595.9428 125.1070 217.3786
ENERGY: 300000 3.9462 14.0503 23.8590 0.0000 -10534.4915 1389.3054 0.0000 0.0000 1697.8772 -7405.4534 292.6565 -9103.3306 -7398.6179 298.4466 -218.3563 -217.0753 29758.5450 151.2195 192.9612
ENERGY: 600000 2.3859 12.3204 26.5605 0.0000 -10373.5750 1313.1983 0.0000 0.0000 1743.1755 -7275.9343 300.4644 -9019.1098 -7377.8722 298.9156 -795.5721 -719.8026 30167.7546 -94.2439 -46.9186
ENERGY: 900000 2.6289 11.6995 22.5651 0.0000 -10737.0223 1507.0788 0.0000 0.0000 1761.1437 -7431.9064 303.5615 -9193.0501 -7374.9559 300.0652 291.6546 303.3040 30008.7104 76.5333 118.5820
ENERGY: 1200000 3.8226 11.4469 24.9315 0.0000 -10408.3037 1356.9209 0.0000 0.0000 1738.6487 -7272.5331 299.6841 -9011.1818 -7354.2087 300.4046 -300.2955 -156.3455 30037.3644 -38.1246 17.0624
ENERGY: 1500000 4.1767 17.0607 25.4698 0.0000 -10503.9649 1405.4309 0.0000 0.0000 1728.1696 -7323.6572 297.8779 -9051.8268 -7348.6396 300.2886 27.2201 63.6977 29928.7026 -62.3707 -7.3839
TCL: Running FEP window   6: Lambda1 0.25   Lambda2 0.3    [dLambda 0.04999999999999999]
TCL: Setting parameter firsttimestep to 0
TCL: Setting parameter alchLambda to 0.25
Info: NONBONDED TABLE R-SQUARED SPACING: 0.0625
Info: NONBONDED TABLE SIZE: 705 POINTS
TCL: Setting parameter alchLambda2 to 0.3
Info: NONBONDED TABLE R-SQUARED SPACING: 0.0625
Info: NONBONDED TABLE SIZE: 705 POINTS
TCL: Running for 1500000 steps
ETITLE: TS BOND ANGLE DIHED IMPRP ELECT VDW BOUNDARY MISC KINETIC TOTAL TEMP POTENTIAL TOTALAVG TEMPAVG PRESSURE GPRESSURE VOLUME PRESSAVG GPRESSAVG
ENERGY: 0 4.1767 17.0607 25.4698 0.0000 -10503.9639 1406.5885 0.0000 0.0000 1727.3140 -7323.3542 297.7304 -9050.6682 -7323.3542 297.7304 6.8467 77.0235 29928.7026 6.8467 77.0235
ENERGY: 300000 2.5342 13.2526 21.9102 0.0000 -10632.4290 1435.2582 0.0000 0.0000 1713.3241 -7446.1496 295.3190 -9159.4737 -7369.7365 299.9723 23.1283 23.6811 29777.0872 -39.1826 10.7464
ENERGY: 600000 5.9089 10.5602 23.8238 0.0000 -10601.0138 1444.9112 0.0000 0.0000 1721.0324 -7394.7773 296.6477 -9115.8097 -7381.0437 299.4467 12.5939 79.5829 29866.6791 -93.5953 -38.4470
ENERGY: 900000 4.3714 15.7602 24.9205 0.0000 -10529.4850 1382.6909 0.0000 0.0000 1761.8832 -7339.8589 303.6890 -9101.7421 -7381.2935 298.9909 -465.6306 -424.5363 30050.5693 -102.4141 -54.8157
ENERGY: 1200000 3.2885 15.7927 22.5901 0.0000 -10453.8156 1398.2703 0.0000 0.0000 1725.7772 -7288.0969 297.4655 -9013.8740 -7367.1474 299.5983 45.4127 117.5103 29938.5504 -137.5865 -82.2086
ENERGY: 1500000 3.3851 18.4308 20.9667 0.0000 -10525.6623 1364.6277 0.0000 0.0000 1777.0614 -7341.1906 306.3052 -9118.2520 -7366.2843 300.2302 -585.0980 -501.8710 29869.4770 -129.4700 -75.7277
TCL: Running FEP window   7: Lambda1 0.3    Lambda2 0.35   [dLambda 0.04999999999999999]
TCL: Setting parameter firsttimestep to 0
TCL: Setting parameter alchLambda to 0.3
Info: NONBONDED TABLE R-SQUARED SPACING: 0.0625
Info: NONBONDED TABLE SIZE: 705 POINTS
TCL: Setting parameter alchLambda2 to 0.35
Info: NONBONDED TABLE R-SQUARED SPACING: 0.0625
Info: NONBONDED TABLE SIZE: 705 POINTS
TCL: Running for 1500000 steps
ETITLE: TS BOND ANGLE DIHED IMPRP ELECT VDW BOUNDARY MISC KINETIC TOTAL TEMP POTENTIAL TOTALAVG TEMPAVG PRESSURE GPRESSURE VOLUME PRESSAVG GPRESSAVG
ENERGY: 0 3.3850 18.4308 20.9667 0.0000 -10525.6628 1365.1781 0.0000 0.0000 1776.2018 -7341.5004 306.1570 -9117.7021 -7341.5004 306.1570 -573.5164 -491.9891 29869.4770 -573.5164 -491.9891
ENERGY: 300000 3.3716 20.6590 21.8569 0.0000 -10525.2251 1354.8719 0.0000 0.0000 1673.9720 -7450.4936 288.5361 -9124.4656 -7376.7536 297.3749 -525.3954 -470.9461 29731.5210 -80.8575 3.2578
ENERGY: 600000 2.5730 15.6653 23.9719 0.0000 -10474.5019 1364.8370 0.0000 0.0000 1783.4558 -7283.9988 307.4074 -9067.4546 -7356.8135 300.0203 -331.0375 -196.4225 29659.9812 -152.3002 -67.5232
ENERGY: 900000 2.1840 13.2504 22.4935 0.0000 -10454.0890 1294.2273 0.0000 0.0000 1676.8899 -7445.0439 289.0390 -9121.9338 -7369.7988 298.3095 -1314.6453 -1258.5995 30182.0918 -194.4949 -123.5021
ENERGY: 1200000 1.8810 11.0141 21.4685 0.0000 -10730.7757 1547.4852 0.0000 0.0000 1705.5855 -7443.3413 293.9852 -9148.9269 -7372.1595 299.0752 1161.9823 1133.4994 29537.7142 -55.2692 3.6379
ENERGY: 1500000 4.6399 13.1211 25.2343 0.0000 -10559.4068 1370.6071 0.0000 0.0000 1749.8350 -7395.9694 301.6123 -9145.8044 -7371.1659 299.2239 -479.6133 -437.7974 29920.7674 -43.0700 18.2049
TCL: Running FEP window   8: Lambda1 0.35   Lambda2 0.39999999999999997 [dLambda 0.04999999999999999]
TCL: Setting parameter firsttimestep to 0
TCL: Setting parameter alchLambda to 0.35
Info: NONBONDED TABLE R-SQUARED SPACING: 0.0625
Info: NONBONDED TABLE SIZE: 705 POINTS
TCL: Setting parameter alchLambda2 to 0.39999999999999997
Info: NONBONDED TABLE R-SQUARED SPACING: 0.0625
Info: NONBONDED TABLE SIZE: 705 POINTS
TCL: Running for 1500000 steps
ETITLE: TS BOND ANGLE DIHED IMPRP ELECT VDW BOUNDARY MISC KINETIC TOTAL TEMP POTENTIAL TOTALAVG TEMPAVG PRESSURE GPRESSURE VOLUME PRESSAVG GPRESSAVG
ENERGY: 0 4.6399 13.1211 25.2343 0.0000 -10559.4070 1370.4231 0.0000 0.0000 1748.9871 -7397.0015 301.4661 -9145.9887 -7397.0015 301.4661 -511.2884 -430.5575 29920.7674 -511.2884 -430.5575
ENERGY: 300000 1.3407 18.6498 21.9927 0.0000 -10482.6168 1354.1084 0.0000 0.0000 1811.4661 -7275.0591 312.2354 -9086.5252 -7285.9555 307.6444 -569.3169 -536.0433 30265.9036 -93.5360 -28.1865
ENERGY: 600000 2.3565 18.5386 21.1371 0.0000 -10383.8603 1312.3295 0.0000 0.0000 1706.8210 -7322.6775 294.1981 -9029.4985 -7303.1908 304.0341 -617.6030 -562.4434 29842.5175 -234.4182 -177.4998
ENERGY: 900000 2.6913 12.3377 22.8577 0.0000 -10502.2921 1402.9976 0.0000 0.0000 1710.8820 -7350.5258 294.8981 -9061.4079 -7321.6602 302.0092 -48.0597 21.3849 29899.4986 -141.0424 -91.3878
ENERGY: 1200000 3.9327 17.5193 23.9395 0.0000 -10570.0701 1447.0654 0.0000 0.0000 1732.8580 -7344.7552 298.6860 -9077.6132 -7327.8888 301.2184 547.0493 616.6157 29772.3330 -40.6581 13.3923
ENERGY: 1500000 4.6583 14.9347 20.5450 0.0000 -10613.5035 1429.4006 0.0000 0.0000 1763.0908 -7380.8741 303.8971 -9143.9648 -7327.7930 301.5366 37.6797 110.9696 29853.9095 -63.2063 -6.7031
TCL: Running FEP window   9: Lambda1 0.39999999999999997 Lambda2 0.44999999999999996 [dLambda 0.04999999999999999]
TCL: Setting parameter firsttimestep to 0
TCL: Setting parameter alchLambda to 0.39999999999999997
Info: NONBONDED TABLE R-SQUARED SPACING: 0.0625
Info: NONBONDED TABLE SIZE: 705 POINTS
TCL: Setting parameter alchLambda2 to 0.44999999999999996
Info: NONBONDED TABLE R-SQUARED SPACING: 0.0625
Info: NONBONDED TABLE SIZE: 705 POINTS
TCL: Running for 1500000 steps
ETITLE: TS BOND ANGLE DIHED IMPRP ELECT VDW BOUNDARY MISC KINETIC TOTAL TEMP POTENTIAL TOTALAVG TEMPAVG PRESSURE GPRESSURE VOLUME PRESSAVG GPRESSAVG
ENERGY: 0 4.6583 14.9347 20.5450 0.0000 -10613.5036 1428.6530 0.0000 0.0000 1762.2399 -7382.4727 303.7505 -9144.7126 -7382.4727 303.7505 30.7983 114.8833 29853.9095 30.7983 114.8833
ENERGY: 300000 3.5635 19.7388 22.1029 0.0000 -10578.2029 1434.2219 0.0000 0.0000 1778.3082 -7320.2676 306.5201 -9098.5758 -7316.6323 304.5218 323.9093 404.5659 29598.5928 464.1987 539.2424
ENERGY: 600000 3.3273 15.8264 24.0746 0.0000 -10691.9099 1530.6054 0.0000 0.0000 1804.2097 -7313.8665 310.9846 -9118.0762 -7334.8697 303.0816 1342.6877 1380.6933 29247.2595 510.5873 568.8874
ENERGY: 900000 1.4904 15.0846 25.1663 0.0000 -10455.5659 1376.5406 0.0000 0.0000 1742.1273 -7295.1567 300.2837 -9037.2839 -7328.2259 302.8600 -227.3918 -118.2812 30040.4713 331.6580 390.6418
ENERGY: 1200000 4.2949 13.7506 24.2542 0.0000 -10609.5039 1540.3351 0.0000 0.0000 1745.2539 -7281.6153 300.8226 -9026.8692 -7322.4468 302.6913 1160.6589 1208.5055 30043.9636 348.4916 408.4856
ENERGY: 1500000 2.1589 19.3065 20.3257 0.0000 -10734.9390 1494.0488 0.0000 0.0000 1755.3070 -7443.7921 302.5555 -9199.0991 -7330.1710 302.2281 555.0695 614.8913 29367.3361 253.6236 312.8202
TCL: Running FEP window  10: Lambda1 0.44999999999999996 Lambda2 0.49999999999999994 [dLambda 0.04999999999999999]
TCL: Setting parameter firsttimestep to 0
TCL: Setting parameter alchLambda to 0.44999999999999996
Info: NONBONDED TABLE R-SQUARED SPACING: 0.0625
Info: NONBONDED TABLE SIZE: 705 POINTS
TCL: Setting parameter alchLambda2 to 0.49999999999999994
Info: NONBONDED TABLE R-SQUARED SPACING: 0.0625
Info: NONBONDED TABLE SIZE: 705 POINTS
TCL: Running for 1500000 steps
ETITLE: TS BOND ANGLE DIHED IMPRP ELECT VDW BOUNDARY MISC KINETIC TOTAL TEMP POTENTIAL TOTALAVG TEMPAVG PRESSURE GPRESSURE VOLUME PRESSAVG GPRESSAVG
ENERGY: 0 2.1589 19.3065 20.3257 0.0000 -10734.9387 1493.7909 0.0000 0.0000 1754.4233 -7444.9335 302.4031 -9199.3568 -7444.9335 302.4031 559.7316 625.4531 29367.3361 559.7316 625.4531
ENERGY: 300000 2.9634 12.3337 20.5018 0.0000 -10588.7161 1418.0086 0.0000 0.0000 1710.2284 -7424.6802 294.7854 -9134.9086 -7390.4462 298.6609 -122.6979 -43.1108 30022.0156 -53.8206 16.3422
ENERGY: 600000 5.2774 9.1555 26.8834 0.0000 -10551.7268 1423.0314 0.0000 0.0000 1788.6495 -7298.7295 308.3026 -9087.3790 -7382.4654 300.7014 -175.1195 -116.9440 30187.5110 4.5300 72.9374
ENERGY: 900000 3.7055 15.8783 22.6596 0.0000 -10385.9441 1277.5423 0.0000 0.0000 1696.0903 -7370.0681 292.3485 -9066.1584 -7365.2071 300.7632 -724.5353 -737.0110 29716.1169 -146.6509 -86.1633
ENERGY: 1200000 3.9868 17.0450 24.8735 0.0000 -10646.5474 1463.6925 0.0000 0.0000 1778.3539 -7358.5958 306.5280 -9136.9497 -7368.5555 300.6431 194.5208 296.7982 29929.0774 -65.2421 -6.4000
ENERGY: 1500000 3.2283 13.3566 22.0700 0.0000 -10546.6986 1414.2312 0.0000 0.0000 1781.8256 -7311.9869 307.1264 -9093.8125 -7365.8350 301.2576 178.3912 185.1943 30177.4740 17.3279 75.7505
TCL: Running FEP window  11: Lambda1 0.49999999999999994 Lambda2 0.5499999999999999 [dLambda 0.04999999999999999]
TCL: Setting parameter firsttimestep to 0
TCL: Setting parameter alchLambda to 0.49999999999999994
Info: NONBONDED TABLE R-SQUARED SPACING: 0.0625
Info: NONBONDED TABLE SIZE: 705 POINTS
TCL: Setting parameter alchLambda2 to 0.5499999999999999
Info: NONBONDED TABLE R-SQUARED SPACING: 0.0625
Info: NONBONDED TABLE SIZE: 705 POINTS
TCL: Running for 1500000 steps
ETITLE: TS BOND ANGLE DIHED IMPRP ELECT VDW BOUNDARY MISC KINETIC TOTAL TEMP POTENTIAL TOTALAVG TEMPAVG PRESSURE GPRESSURE VOLUME PRESSAVG GPRESSAVG
ENERGY: 0 3.2283 13.3566 22.0700 0.0000 -10546.7004 1415.5178 0.0000 0.0000 1780.9446 -7311.5831 306.9745 -9092.5277 -7311.5831 306.9745 150.7698 213.0619 30177.4740 150.7698 213.0619
ENERGY: 300000 4.7906 21.0542 24.9801 0.0000 -10630.4516 1461.6912 0.0000 0.0000 1716.7779 -7401.1576 295.9143 -9117.9355 -7370.4844 297.1573 220.1536 264.1289 30136.2835 -182.4219 -136.1147
ENERGY: 600000 5.0996 14.2005 21.9096 0.0000 -10591.0966 1444.8625 0.0000 0.0000 1677.5226 -7427.5017 289.1481 -9105.0244 -7365.5066 297.4569 155.5934 250.5149 29773.6608 -3.1944 48.1873
ENERGY: 900000 3.0847 12.8236 26.5620 0.0000 -10609.4513 1441.8761 0.0000 0.0000 1728.3104 -7396.7945 297.9022 -9125.1049 -7375.7118 298.3107 46.0199 61.7408 30066.8040 72.6995 119.4438
ENERGY: 1200000 2.6777 16.1149 24.2354 0.0000 -10664.8098 1459.9436 0.0000 0.0000 1768.6651 -7393.1731 304.8579 -9161.8383 -7376.0429 298.4394 230.9630 289.6900 29824.1675 2.9519 53.0713
ENERGY: 1500000 1.9692 17.3965 23.1978 0.0000 -10591.3278 1429.6085 0.0000 0.0000 1807.2687 -7311.8871 311.5119 -9119.1558 -7369.9368 299.7671 -189.0773 -128.7830 30468.5343 76.2817 128.9545
TCL: Running FEP window  12: Lambda1 0.5499999999999999 Lambda2 0.6    [dLambda 0.050000000000000044]
TCL: Setting parameter firsttimestep to 0
TCL: Setting parameter alchLambda to 0.5499999999999999
Info: NONBONDED TABLE R-SQUARED SPACING: 0.0625
Info: NONBONDED TABLE SIZE: 705 POINTS
TCL: Setting parameter alchLambda2 to 0.6
Info: NONBONDED TABLE R-SQUARED SPACING: 0.0625
Info: NONBONDED TABLE SIZE: 705 POINTS
TCL: Running for 1500000 steps
ETITLE: TS BOND ANGLE DIHED IMPRP ELECT VDW BOUNDARY MISC KINETIC TOTAL TEMP POTENTIAL TOTALAVG TEMPAVG PRESSURE GPRESSURE VOLUME PRESSAVG GPRESSAVG
ENERGY: 0 1.9692 17.3965 23.1978 0.0000 -10590.5866 1429.5304 0.0000 0.0000 1806.3903 -7312.1024 311.3605 -9118.4927 -7312.1024 311.3605 -203.3449 -119.2823 30468.5343 -203.3449 -119.2823
ENERGY: 300000 5.8871 10.3340 22.4061 0.0000 -10598.9987 1422.7998 0.0000 0.0000 1726.3551 -7411.2165 297.5651 -9137.5716 -7367.4888 301.4958 109.5487 129.6442 29883.4476 25.1773 48.8519
ENERGY: 600000 6.6452 21.5869 23.4944 0.0000 -10562.8768 1383.0058 0.0000 0.0000 1707.8653 -7420.2791 294.3781 -9128.1444 -7355.7130 301.5735 -354.2941 -274.8588 29749.7215 97.3012 134.3868
ENERGY: 900000 5.8615 14.7776 19.5595 0.0000 -10528.7960 1381.0774 0.0000 0.0000 1689.2593 -7418.2607 291.1711 -9107.5199 -7374.0236 299.1540 -221.0255 -187.1251 30029.3336 17.7003 60.3646
ENERGY: 1200000 3.3064 17.0441 21.0482 0.0000 -10541.8913 1362.8090 0.0000 0.0000 1707.4753 -7430.2083 294.3109 -9137.6836 -7368.0867 299.4933 -538.6080 -484.3237 29745.3038 -63.2858 -19.9214
ENERGY: 1500000 6.1259 17.5251 25.5147 0.0000 -10540.2511 1354.8277 0.0000 0.0000 1758.4183 -7377.8393 303.0917 -9136.2576 -7368.1491 299.8082 -862.9751 -796.1448 30273.8336 -153.5620 -106.0602
TCL: Running FEP window  13: Lambda1 0.6    Lambda2 0.65   [dLambda 0.050000000000000044]
TCL: Setting parameter firsttimestep to 0
TCL: Setting parameter alchLambda to 0.6
Info: NONBONDED TABLE R-SQUARED SPACING: 0.0625
Info: NONBONDED TABLE SIZE: 705 POINTS
TCL: Setting parameter alchLambda2 to 0.65
Info: NONBONDED TABLE R-SQUARED SPACING: 0.0625
Info: NONBONDED TABLE SIZE: 705 POINTS
TCL: Running for 1500000 steps
ETITLE: TS BOND ANGLE DIHED IMPRP ELECT VDW BOUNDARY MISC KINETIC TOTAL TEMP POTENTIAL TOTALAVG TEMPAVG PRESSURE GPRESSURE VOLUME PRESSAVG GPRESSAVG
ENERGY: 0 6.1259 17.5251 25.5147 0.0000 -10540.3608 1354.5203 0.0000 0.0000 1757.5619 -7379.1129 302.9441 -9136.6748 -7379.1129 302.9441 -869.6215 -788.9972 30273.8336 -869.6215 -788.9972
ENERGY: 300000 3.5790 16.3726 21.5385 0.0000 -10660.8740 1420.0281 0.0000 0.0000 1757.2871 -7442.0686 302.8968 -9199.3558 -7399.1338 302.0028 -237.5668 -189.8529 30367.5106 103.8704 170.7631
ENERGY: 600000 3.3951 15.5395 22.8383 0.0000 -10452.9009 1335.2816 0.0000 0.0000 1668.1955 -7407.6509 287.5404 -9075.8464 -7392.6658 301.1905 -551.7254 -550.4779 30109.8373 -41.8250 27.4121
ENERGY: 900000 2.1655 16.1078 25.8795 0.0000 -10378.6352 1282.9133 0.0000 0.0000 1775.0269 -7276.5421 305.9545 -9051.5691 -7376.2683 301.4747 -972.4630 -956.0614 30465.6160 -154.6097 -90.2260
ENERGY: 1200000 2.9488 13.0457 25.4456 0.0000 -10448.0265 1375.6911 0.0000 0.0000 1696.2662 -7334.6291 292.3788 -9030.8953 -7360.7134 299.9667 -58.5240 -0.6383 30181.9399 -82.2147 -20.7952
ENERGY: 1500000 2.3822 11.9910 25.3728 0.0000 -10659.1900 1467.6435 0.0000 0.0000 1751.3879 -7400.4126 301.8799 -9151.8005 -7357.7631 300.6794 403.3663 456.8902 29997.8880 -49.6174 18.0675
TCL: Running FEP window  14: Lambda1 0.65   Lambda2 0.7000000000000001 [dLambda 0.050000000000000044]
TCL: Setting parameter firsttimestep to 0
TCL: Setting parameter alchLambda to 0.65
Info: NONBONDED TABLE R-SQUARED SPACING: 0.0625
Info: NONBONDED TABLE SIZE: 705 POINTS
TCL: Setting parameter alchLambda2 to 0.7000000000000001
Info: NONBONDED TABLE R-SQUARED SPACING: 0.0625
Info: NONBONDED TABLE SIZE: 705 POINTS
TCL: Running for 1500000 steps
ETITLE: TS BOND ANGLE DIHED IMPRP ELECT VDW BOUNDARY MISC KINETIC TOTAL TEMP POTENTIAL TOTALAVG TEMPAVG PRESSURE GPRESSURE VOLUME PRESSAVG GPRESSAVG
ENERGY: 0 2.3822 11.9910 25.3728 0.0000 -10659.7684 1467.6691 0.0000 0.0000 1750.5152 -7401.8381 301.7295 -9152.3532 -7401.8381 301.7295 399.9491 473.2904 29997.8880 399.9491 473.2904
ENERGY: 300000 2.0259 17.0950 27.3211 0.0000 -10518.4038 1405.3016 0.0000 0.0000 1740.6437 -7326.0166 300.0280 -9066.6602 -7403.9738 296.6285 -85.2181 3.2517 30275.5024 -32.7764 25.0939
ENERGY: 600000 2.5658 13.8552 22.2900 0.0000 -10808.0394 1542.5275 0.0000 0.0000 1768.4932 -7458.3078 304.8283 -9226.8010 -7397.0123 299.3044 821.2059 951.4898 29371.4554 39.0903 116.0113
ENERGY: 900000 2.8803 18.3603 22.9353 0.0000 -10571.3808 1443.2941 0.0000 0.0000 1718.3384 -7365.5723 296.1833 -9083.9107 -7390.4522 298.3711 365.7358 439.5476 29725.5166 38.9862 121.1783
ENERGY: 1200000 4.5646 16.0582 25.5649 0.0000 -10725.2277 1530.3066 0.0000 0.0000 1722.4244 -7426.3089 296.8876 -9148.7333 -7383.9356 298.0788 1058.8250 1134.8570 29741.3443 176.5970 249.7802
ENERGY: 1500000 2.9099 17.1043 21.6721 0.0000 -10522.3792 1424.6861 0.0000 0.0000 1702.8613 -7353.1455 293.5156 -9056.0068 -7377.2894 298.0706 327.8787 366.4120 29886.6370 100.7157 174.3023
TCL: Running FEP window  15: Lambda1 0.7000000000000001 Lambda2 0.7500000000000001 [dLambda 0.050000000000000044]
TCL: Setting parameter firsttimestep to 0
TCL: Setting parameter alchLambda to 0.7000000000000001
Info: NONBONDED TABLE R-SQUARED SPACING: 0.0625
Info: NONBONDED TABLE SIZE: 705 POINTS
TCL: Setting parameter alchLambda2 to 0.7500000000000001
Info: NONBONDED TABLE R-SQUARED SPACING: 0.0625
Info: NONBONDED TABLE SIZE: 705 POINTS
TCL: Running for 1500000 steps
ETITLE: TS BOND ANGLE DIHED IMPRP ELECT VDW BOUNDARY MISC KINETIC TOTAL TEMP POTENTIAL TOTALAVG TEMPAVG PRESSURE GPRESSURE VOLUME PRESSAVG GPRESSAVG
ENERGY: 0 2.9099 17.1043 21.6721 0.0000 -10523.2400 1425.3168 0.0000 0.0000 1702.0090 -7354.2279 293.3687 -9056.2369 -7354.2279 293.3687 309.8942 388.4559 29886.6370 309.8942 388.4559
ENERGY: 300000 3.6346 12.4296 22.3479 0.0000 -10726.5253 1510.5525 0.0000 0.0000 1786.9331 -7390.6278 308.0067 -9177.5608 -7368.1167 297.7656 759.5159 853.6725 29971.6789 -119.2082 -59.3466
ENERGY: 600000 2.9435 20.3294 23.4698 0.0000 -10576.3980 1340.0247 0.0000 0.0000 1752.3479 -7437.2827 302.0454 -9189.6305 -7371.3516 298.9293 -820.3858 -731.3153 30087.4015 -128.7518 -65.6852
ENERGY: 900000 2.6206 17.5854 23.4670 0.0000 -10457.1647 1389.0576 0.0000 0.0000 1771.9106 -7252.5235 305.4174 -9024.4341 -7336.7126 301.3727 -198.1383 -161.2016 30585.8963 -87.2480 -31.7584
ENERGY: 1200000 5.8587 19.0220 26.4963 0.0000 -10533.3893 1409.6802 0.0000 0.0000 1742.3428 -7329.9894 300.3209 -9072.3322 -7341.3439 301.5026 308.4946 376.7697 29844.0848 10.8114 68.9504
ENERGY: 1500000 2.3085 14.5501 24.8553 0.0000 -10519.3124 1437.0512 0.0000 0.0000 1762.4740 -7278.0732 303.7908 -9040.5472 -7342.2453 301.2997 242.7819 258.4202 30294.9707 -76.2793 -22.6832
TCL: Running FEP window  16: Lambda1 0.7500000000000001 Lambda2 0.8000000000000002 [dLambda 0.050000000000000044]
TCL: Setting parameter firsttimestep to 0
TCL: Setting parameter alchLambda to 0.7500000000000001
Info: NONBONDED TABLE R-SQUARED SPACING: 0.0625
Info: NONBONDED TABLE SIZE: 705 POINTS
TCL: Setting parameter alchLambda2 to 0.8000000000000002
Info: NONBONDED TABLE R-SQUARED SPACING: 0.0625
Info: NONBONDED TABLE SIZE: 705 POINTS
TCL: Running for 1500000 steps
ETITLE: TS BOND ANGLE DIHED IMPRP ELECT VDW BOUNDARY MISC KINETIC TOTAL TEMP POTENTIAL TOTALAVG TEMPAVG PRESSURE GPRESSURE VOLUME PRESSAVG GPRESSAVG
ENERGY: 0 2.3085 14.5501 24.8553 0.0000 -10521.5319 1437.9862 0.0000 0.0000 1761.6126 -7280.2192 303.6423 -9041.8318 -7280.2192 303.6423 212.1205 280.2605 30294.9707 212.1205 280.2605
ENERGY: 300000 2.6954 12.7604 23.1181 0.0000 -10526.9122 1421.8968 0.0000 0.0000 1807.0644 -7259.3771 311.4767 -9066.4415 -7319.0104 300.2907 185.2383 230.2635 30293.8815 74.0655 112.7165
ENERGY: 600000 3.6031 15.9739 24.4479 0.0000 -10758.8856 1506.2188 0.0000 0.0000 1750.5914 -7458.0506 301.7426 -9208.6419 -7362.0904 300.7702 460.1645 533.0285 30007.3567 44.1331 89.4436
ENERGY: 900000 2.6358 14.1028 25.8634 0.0000 -10458.8435 1369.8397 0.0000 0.0000 1755.0511 -7291.3506 302.5113 -9046.4017 -7360.4760 299.8602 -74.7255 -9.2124 30145.9000 -94.8441 -40.9982
ENERGY: 1200000 3.5245 11.2640 26.8684 0.0000 -10538.6086 1399.2113 0.0000 0.0000 1777.3120 -7320.4283 306.3484 -9097.7403 -7363.4533 300.4864 151.0845 185.3515 29752.7829 -101.5268 -46.7331
ENERGY: 1500000 3.2521 17.1378 26.2999 0.0000 -10453.8478 1366.7192 0.0000 0.0000 1795.9692 -7244.4696 309.5642 -9040.4388 -7348.5375 301.7298 237.0951 309.0094 29444.7668 -118.7317 -65.3861
TCL: Running FEP window  17: Lambda1 0.8000000000000002 Lambda2 0.8500000000000002 [dLambda 0.050000000000000044]
TCL: Setting parameter firsttimestep to 0
TCL: Setting parameter alchLambda to 0.8000000000000002
Info: NONBONDED TABLE R-SQUARED SPACING: 0.0625
Info: NONBONDED TABLE SIZE: 705 POINTS
TCL: Setting parameter alchLambda2 to 0.8500000000000002
Info: NONBONDED TABLE R-SQUARED SPACING: 0.0625
Info: NONBONDED TABLE SIZE: 705 POINTS
TCL: Running for 1500000 steps
ETITLE: TS BOND ANGLE DIHED IMPRP ELECT VDW BOUNDARY MISC KINETIC TOTAL TEMP POTENTIAL TOTALAVG TEMPAVG PRESSURE GPRESSURE VOLUME PRESSAVG GPRESSAVG
ENERGY: 0 3.2521 17.1378 26.2999 0.0000 -10454.7317 1366.4677 0.0000 0.0000 1795.0657 -7246.5084 309.4085 -9041.5741 -7246.5084 309.4085 233.7995 321.8835 29444.7668 233.7995 321.8835
ENERGY: 300000 1.9870 14.2309 21.5725 0.0000 -10508.3844 1378.5306 0.0000 0.0000 1757.5532 -7334.5102 302.9426 -9092.0635 -7326.6806 303.8767 -358.9032 -301.9675 30180.8934 -142.8990 -70.5365
ENERGY: 600000 3.9160 12.6986 21.0541 0.0000 -10503.5396 1339.9467 0.0000 0.0000 1729.3709 -7396.5532 298.0850 -9125.9242 -7363.4770 298.4360 -798.8832 -791.5489 30184.5039 -196.6040 -133.0547
ENERGY: 900000 2.6168 16.2519 23.5129 0.0000 -10538.9906 1357.0268 0.0000 0.0000 1710.9302 -7428.6519 294.9064 -9139.5822 -7366.4579 298.2673 -588.5265 -583.3176 30401.9779 -234.7360 -179.5154
ENERGY: 1200000 4.9764 11.3714 26.2854 0.0000 -10625.2236 1398.5150 0.0000 0.0000 1732.2145 -7451.8609 298.5751 -9184.0754 -7362.4506 298.5251 -212.5403 -127.0824 29871.8129 -195.4374 -130.0365
ENERGY: 1500000 3.5843 14.4797 23.3141 0.0000 -10744.4803 1509.9366 0.0000 0.0000 1746.1938 -7446.9718 300.9847 -9193.1656 -7357.9341 299.7852 746.3986 765.4759 29746.9822 -138.3286 -76.5264
TCL: Running FEP window  18: Lambda1 0.8500000000000002 Lambda2 0.9000000000000002 [dLambda 0.050000000000000044]
TCL: Setting parameter firsttimestep to 0
TCL: Setting parameter alchLambda to 0.8500000000000002
Info: NONBONDED TABLE R-SQUARED SPACING: 0.0625
Info: NONBONDED TABLE SIZE: 705 POINTS
TCL: Setting parameter alchLambda2 to 0.9000000000000002
Info: NONBONDED TABLE R-SQUARED SPACING: 0.0625
Info: NONBONDED TABLE SIZE: 705 POINTS
TCL: Running for 1500000 steps
ETITLE: TS BOND ANGLE DIHED IMPRP ELECT VDW BOUNDARY MISC KINETIC TOTAL TEMP POTENTIAL TOTALAVG TEMPAVG PRESSURE GPRESSURE VOLUME PRESSAVG GPRESSAVG
ENERGY: 0 3.5843 14.4797 23.3141 0.0000 -10745.1304 1510.7036 0.0000 0.0000 1745.3315 -7447.7172 300.8360 -9193.0487 -7447.7172 300.8360 707.1348 792.1553 29746.9822 707.1348 792.1553
ENERGY: 300000 2.2710 17.4540 21.5426 0.0000 -10413.2575 1342.8446 0.0000 0.0000 1723.8404 -7305.3048 297.1317 -9029.1452 -7363.6893 299.5373 -527.9924 -425.5743 30494.5263 75.9962 158.1230
ENERGY: 600000 2.9780 18.4613 23.5960 0.0000 -10457.6015 1350.7961 0.0000 0.0000 1720.5432 -7341.2270 296.5634 -9061.7701 -7341.9598 300.3784 -194.6351 -156.7560 30196.9113 -56.6131 17.1578
ENERGY: 900000 2.3111 15.5155 23.1707 0.0000 -10558.3966 1397.6635 0.0000 0.0000 1770.5027 -7349.2332 305.1747 -9119.7359 -7334.7879 301.6155 -348.2594 -267.7309 30488.2189 -3.8695 65.2837
ENERGY: 1200000 3.6489 16.6590 24.8893 0.0000 -10639.1114 1463.1477 0.0000 0.0000 1802.1868 -7328.5797 310.6360 -9130.7665 -7335.8552 302.4890 429.9216 516.0175 29950.0262 40.4820 109.5184
ENERGY: 1500000 2.3301 21.8959 24.8399 0.0000 -10572.5919 1391.5694 0.0000 0.0000 1748.5384 -7383.4182 301.3888 -9131.9566 -7329.2890 302.6027 -442.2219 -367.9012 30366.3250 20.9854 94.6569
TCL: Running FEP window  19: Lambda1 0.9000000000000002 Lambda2 0.9500000000000003 [dLambda 0.050000000000000044]
TCL: Setting parameter firsttimestep to 0
TCL: Setting parameter alchLambda to 0.9000000000000002
Info: NONBONDED TABLE R-SQUARED SPACING: 0.0625
Info: NONBONDED TABLE SIZE: 705 POINTS
TCL: Setting parameter alchLambda2 to 0.9500000000000003
Info: NONBONDED TABLE R-SQUARED SPACING: 0.0625
Info: NONBONDED TABLE SIZE: 705 POINTS
TCL: Running for 1500000 steps
ETITLE: TS BOND ANGLE DIHED IMPRP ELECT VDW BOUNDARY MISC KINETIC TOTAL TEMP POTENTIAL TOTALAVG TEMPAVG PRESSURE GPRESSURE VOLUME PRESSAVG GPRESSAVG
ENERGY: 0 2.3301 21.8959 24.8399 0.0000 -10574.2043 1391.8033 0.0000 0.0000 1747.6594 -7385.6756 301.2373 -9133.3350 -7385.6756 301.2373 -430.0553 -349.9692 30366.3250 -430.0553 -349.9692
ENERGY: 300000 2.3658 14.0968 22.8728 0.0000 -10555.5553 1397.3309 0.0000 0.0000 1674.3292 -7444.5598 288.5976 -9118.8890 -7347.0128 299.8813 -25.1815 32.0140 30103.4192 -452.8096 -372.4003
ENERGY: 600000 2.2784 16.6918 24.6695 0.0000 -10406.9357 1337.0723 0.0000 0.0000 1716.0248 -7310.1988 295.7845 -9026.2236 -7336.3036 299.7120 -288.6426 -186.4335 30113.3408 -420.5870 -339.6600
ENERGY: 900000 4.7312 15.4279 23.0085 0.0000 -10467.9557 1318.9341 0.0000 0.0000 1704.3422 -7401.5119 293.7708 -9105.8541 -7355.7040 299.1082 -771.6148 -742.3166 30175.0599 -232.9522 -167.1223
ENERGY: 1200000 2.4493 17.3328 24.7388 0.0000 -10698.8418 1478.5665 0.0000 0.0000 1744.1903 -7431.5640 300.6393 -9175.7543 -7368.0086 299.2318 337.8465 375.7399 30195.2608 -166.3622 -108.2908
ENERGY: 1500000 2.1326 11.7004 22.4973 0.0000 -10442.8952 1297.1855 0.0000 0.0000 1723.3438 -7386.0355 297.0461 -9109.3793 -7370.5304 298.8042 -727.4750 -669.3058 30195.8603 -236.8142 -178.8987
TCL: Running FEP window  20: Lambda1 0.9500000000000003 Lambda2 1.0    [dLambda 0.04999999999999971]
TCL: Setting parameter firsttimestep to 0
TCL: Setting parameter alchLambda to 0.9500000000000003
Info: NONBONDED TABLE R-SQUARED SPACING: 0.0625
Info: NONBONDED TABLE SIZE: 705 POINTS
TCL: Setting parameter alchLambda2 to 1.0
Info: NONBONDED TABLE R-SQUARED SPACING: 0.0625
Info: NONBONDED TABLE SIZE: 705 POINTS
TCL: Running for 1500000 steps
ETITLE: TS BOND ANGLE DIHED IMPRP ELECT VDW BOUNDARY MISC KINETIC TOTAL TEMP POTENTIAL TOTALAVG TEMPAVG PRESSURE GPRESSURE VOLUME PRESSAVG GPRESSAVG
ENERGY: 0 2.1326 11.7004 22.4973 0.0000 -10444.7876 1297.5783 0.0000 0.0000 1722.4933 -7388.3858 296.8995 -9110.8791 -7388.3858 296.8995 -712.8231 -645.3649 30195.8603 -712.8231 -645.3649
ENERGY: 300000 4.9808 18.5913 20.5751 0.0000 -10580.8838 1450.2662 0.0000 0.0000 1739.4836 -7346.9869 299.8280 -9086.4705 -7365.7444 299.2754 556.8032 630.4082 29966.3574 297.8372 344.8265
ENERGY: 600000 2.3703 16.3530 25.4040 0.0000 -10491.1689 1370.1156 0.0000 0.0000 1740.9902 -7335.9358 300.0877 -9076.9260 -7374.5397 298.1733 -370.5786 -219.7725 30497.1460 -89.0873 -22.2280
ENERGY: 900000 3.7607 22.2441 24.8262 0.0000 -10528.3606 1394.6259 0.0000 0.0000 1700.8687 -7382.0351 293.1721 -9082.9037 -7372.2604 298.8933 -74.4453 47.6171 29759.7156 -57.4879 18.8120
ENERGY: 1200000 5.2010 19.6470 22.8329 0.0000 -10504.5185 1354.4408 0.0000 0.0000 1724.7511 -7377.6456 297.2887 -9102.3967 -7372.6474 299.4442 -609.3032 -574.3848 30464.6106 -203.8418 -136.0307
ENERGY: 1500000 4.9464 8.9038 25.9726 0.0000 -10539.6895 1366.6027 0.0000 0.0000 1745.1135 -7388.1505 300.7984 -9133.2640 -7378.3134 298.9953 81.4632 53.6258 29783.2328 -271.3546 -205.5953
TCL: Exiting due to exit command.
