Info: SIMULATION PARAMETERS:
Info: TIMESTEP               2
Info: NUMBER OF STEPS        0
Info: STEPS PER CYCLE        10
Info: PERIODIC CELL BASIS 1  31.9493 0 0
Info: PERIODIC CELL BASIS 2  0 29.4114 0
Info: PERIODIC CELL BASIS 3  0 0 32.7541
Info: PERIODIC CELL CENTER   0 0 0
Info: WRAPPING WATERS AROUND PERIODIC BOUNDARIES ON OUTPUT.
Info: WRAPPING ALL CLUSTERS AROUND PERIODIC BOUNDARIES ON OUTPUT.
Info: FIRST LDB TIMESTEP     50
Info: LAST LDB TIMESTEP     -1
Info: HOM BACKGROUND SCALING 1
Info: PME BACKGROUND SCALING 1
Info: MIN ATOMS PER PATCH    40
Info: EMPTY PATCH LOAD       40 ATOMS
Info: VELOCITY FILE          mobley_1922649_equil.vel
Info: CENTER OF MASS MOVING INITIALLY? NO
Info: DIELECTRIC             1
Info: EXCLUDE                SCALED ONE-FOUR
Info: 1-4 ELECTROSTATICS SCALED BY 0.833333
Info: MODIFIED 1-4 VDW PARAMETERS WILL BE USED
Info: DCD FILENAME           mobley_1922649_prod.dcd
Info: DCD FREQUENCY          100000
Info: DCD FIRST STEP         100000
Info: DCD FILE WILL CONTAIN UNIT CELL DATA
Info: XST FILENAME           mobley_1922649_prod.xst
Info: XST FREQUENCY          100000
Info: NO VELOCITY DCD OUTPUT
Info: NO FORCE DCD OUTPUT
Info: OUTPUT FILENAME        mobley_1922649_prod
Info: BINARY OUTPUT FILES WILL BE USED
Info: RESTART FILENAME       mobley_1922649_prod.restart
Info: RESTART FREQUENCY      100000
Info: BINARY RESTART FILES WILL BE USED
Info: CUTOFF                 9
Info: PAIRLIST DISTANCE      11
Info: PAIRLIST SHRINK RATE   0.01
Info: PAIRLIST GROW RATE     0.01
Info: PAIRLIST TRIGGER       0.3
Info: PAIRLISTS PER CYCLE    2
Info: PAIRLISTS ENABLED
Info: MARGIN                 2
Info: HYDROGEN GROUP CUTOFF  2.5
Info: PATCH DIMENSION        15.5
Info: ENERGY OUTPUT STEPS    100000
Info: ENERGY EVALUATION STEPS    100000
Info: OUTPUT ENERGY PRECISION 4
Info: CROSSTERM ENERGY INCLUDED IN DIHEDRAL
Info: TIMING OUTPUT STEPS    1000000
Info: PRESSURE OUTPUT STEPS  100000
Info: ALCHEMICAL FEP ON
Info: FEP CURRENT LAMBDA VALUE     1
Info: FEP COMPARISON LAMBDA VALUE  0.95
Info: FEP INTRA-ALCHEMICAL NON-BONDED INTERACTIONS WILL BE RETAINED
Info: FEP INTRA-ALCHEMICAL BONDED INTERACTIONS WILL BE RETAINED
Info: FEP VDW SHIFTING COEFFICIENT 5
Info: FEP ELEC. ACTIVE FOR ANNIHILATED PARTICLES BETWEEN LAMBDA = 0 AND LAMBDA = 0.5
Info: FEP ELEC. ACTIVE FOR EXNIHILATED PARTICLES BETWEEN LAMBDA = 0.5 AND LAMBDA = 1
Info: FEP VDW ACTIVE FOR ANNIHILATED PARTICLES BETWEEN LAMBDA = 0 AND LAMBDA = 1
Info: FEP VDW ACTIVE FOR EXNIHILATED PARTICLES BETWEEN LAMBDA = 0 AND LAMBDA = 1
Info: FEP BOND ACTIVE FOR ANNIHILATED PARTICLES BETWEEN LAMBDA = 1 AND LAMBDA = 1
Info: FEP BOND ACTIVE FOR EXNIHILATED PARTICLES BETWEEN LAMBDA = 0 AND LAMBDA = 0
Info: LANGEVIN DYNAMICS ACTIVE
Info: LANGEVIN TEMPERATURE   300
Info: LANGEVIN USING BBK INTEGRATOR
Info: LANGEVIN DAMPING COEFFICIENT IS 1 INVERSE PS
Info: LANGEVIN DYNAMICS APPLIED TO HYDROGENS
Info: LANGEVIN PISTON PRESSURE CONTROL ACTIVE
Info:        TARGET PRESSURE IS 1.01325 BAR
Info:     OSCILLATION PERIOD IS 50 FS
Info:             DECAY TIME IS 25 FS
Info:     PISTON TEMPERATURE IS 300 K
Info:       PRESSURE CONTROL IS GROUP-BASED
Info:    INITIAL STRAIN RATE IS 0.000407394 0.000407394 0.000407394
Info:       CELL FLUCTUATION IS ISOTROPIC
Info: PARTICLE MESH EWALD (PME) ACTIVE
Info: PME TOLERANCE               1e-06
Info: PME EWALD COEFFICIENT       0.348832
Info: PME INTERPOLATION ORDER     4
Info: PME GRID DIMENSIONS         32 32 36
Info: PME MAXIMUM GRID SPACING    1
Info: PME CALCULATION WILL BE PERFORMED ON GPU
Info: FULL ELECTROSTATIC EVALUATION FREQUENCY      2
Info: USING VERLET I (r-RESPA) MTS SCHEME.
Info: C1 SPLITTING OF LONG RANGE ELECTROSTATICS
Info: PLACING ATOMS IN PATCHES BY HYDROGEN GROUPS
Info: RIGID BONDS TO HYDROGEN : ALL
Info:         ERROR TOLERANCE : 1e-08
Info:          MAX ITERATIONS : 100
Info: RIGID WATER USING SETTLE ALGORITHM
Info: RANDOM NUMBER SEED     1744027695
Info: USE HYDROGEN BONDS?    NO
Info: Using AMBER format force field!
Info: AMBER PARM FILE        mobley_1922649.prmtop
Info: COORDINATE PDB         mobley_1922649.pdb
Info: Exclusions will be read from PARM file!
Info: SCNB (VDW SCALING)     2
Info: USING ARITHMETIC MEAN TO COMBINE L-J SIGMA PARAMETERS
Info: BINARY COORDINATES     mobley_1922649_equil.coor
Info: SUMMARY OF PARAMETERS:
Info: 11 BONDS
Info: 12 ANGLES
Info:   12 HARMONIC
Info:   0 COSINE-BASED
Info: 8 DIHEDRAL
Info: 0 IMPROPER
Info: 0 CROSSTERM
Info: 0 VDW
Info: 66 VDW_PAIRS
Info: 0 NBTHOLE_PAIRS
Info: To read alchdata from file: mobley_1922649.pdb
Info: To read alchflag data from column: 5
Info: STRUCTURE SUMMARY:
Info: 2984 ATOMS
Info: 2984 BONDS
Info: 42 ANGLES
Info: 55 DIHEDRALS
Info: 0 IMPROPERS
Info: 0 CROSSTERMS
Info: 3068 EXCLUSIONS
Info: 2968 RIGID BONDS
Info: ALCH: 0 ATOMS TO DISAPPEAR IN FINAL STATE
Info: ALCH: 26 ATOMS TO APPEAR IN FINAL STATE
Info: 5984 DEGREES OF FREEDOM
Info: 1002 HYDROGEN GROUPS
Info: 4 ATOMS IN LARGEST HYDROGEN GROUP
Info: 1002 MIGRATION GROUPS
Info: 4 ATOMS IN LARGEST MIGRATION GROUP
Info: TOTAL MASS = 18027 amu
Info: TOTAL CHARGE = -0.000199929 e
Info: MASS DENSITY = 0.972612 g/cm^3
Info: ATOM DENSITY = 0.0969519 atoms/A^3
Info: ADDED 0 IMPLICIT EXCLUSIONS
Info: NONBONDED TABLE R-SQUARED SPACING: 0.0625
Info: NONBONDED TABLE SIZE: 705 POINTS
Info: REMOVING COM VELOCITY -0.181387 0.0111556 -0.0996254
Info: Use 3D box decompostion in PME FFT.
Info: Updated CUDA force table with 4096 elements.
Info: Updated CUDA LJ table with 11 x 11 elements.
Info: Found 28 unique exclusion lists needing 88 bytes
TCL: Running for 1500000 steps
ETITLE: TS BOND ANGLE DIHED IMPRP ELECT VDW BOUNDARY MISC KINETIC TOTAL TEMP POTENTIAL TOTALAVG TEMPAVG PRESSURE GPRESSURE VOLUME PRESSAVG GPRESSAVG
ENERGY: 0 4.1546 9.9943 15.0331 0.0000 -10784.6389 1438.2177 0.0000 0.0000 1807.7529 -7509.4863 304.0450 -9317.2392 -7509.4863 304.0450 56.4541 142.9910 30778.1458 56.4541 142.9910
ENERGY: 300000 4.9529 9.9519 16.6486 0.0000 -10845.9494 1426.0567 0.0000 0.0000 1825.3850 -7562.9543 307.0105 -9388.3393 -7581.3117 299.8771 -332.1615 -271.7366 31198.4972 -25.1810 46.8711
ENERGY: 600000 5.0180 7.9990 16.3275 0.0000 -10891.2622 1458.8388 0.0000 0.0000 1856.2709 -7546.8080 312.2052 -9403.0789 -7587.1487 303.3228 -254.6271 -143.2109 31045.4846 -45.7545 22.4620
ENERGY: 900000 4.6104 11.4023 18.5137 0.0000 -10781.9177 1467.8137 0.0000 0.0000 1779.3550 -7500.2225 299.2688 -9279.5776 -7570.3947 303.4300 171.0642 271.0551 31118.3801 -40.1169 26.9304
ENERGY: 1200000 5.2149 11.4144 13.2313 0.0000 -10797.0463 1419.5226 0.0000 0.0000 1811.4795 -7536.1835 304.6718 -9347.6630 -7564.2997 304.3984 202.3865 220.6851 30710.7223 -101.4582 -33.5157
ENERGY: 1500000 4.2155 14.5022 13.6869 0.0000 -10812.0207 1411.3155 0.0000 0.0000 1818.9901 -7549.3105 305.9350 -9368.3006 -7558.4390 303.8347 -504.6131 -422.4470 31213.9261 -127.7100 -56.9534
TCL: Running FEP window   2: Lambda1 0.95   Lambda2 0.8999999999999999 [dLambda -0.050000000000000044]
TCL: Setting parameter firsttimestep to 0
TCL: Setting parameter alchLambda to 0.95
Info: NONBONDED TABLE R-SQUARED SPACING: 0.0625
Info: NONBONDED TABLE SIZE: 705 POINTS
TCL: Setting parameter alchLambda2 to 0.8999999999999999
Info: NONBONDED TABLE R-SQUARED SPACING: 0.0625
Info: NONBONDED TABLE SIZE: 705 POINTS
TCL: Running for 1500000 steps
ETITLE: TS BOND ANGLE DIHED IMPRP ELECT VDW BOUNDARY MISC KINETIC TOTAL TEMP POTENTIAL TOTALAVG TEMPAVG PRESSURE GPRESSURE VOLUME PRESSAVG GPRESSAVG
ENERGY: 0 4.2155 14.5022 13.6869 0.0000 -10810.2606 1411.6102 0.0000 0.0000 1818.1070 -7548.1388 305.7864 -9366.2458 -7548.1388 305.7864 -516.3832 -432.3755 31213.9261 -516.3832 -432.3755
ENERGY: 300000 3.9623 12.9231 11.3015 0.0000 -10889.9304 1516.9791 0.0000 0.0000 1784.3027 -7560.4617 300.1009 -9344.7645 -7563.1592 302.8832 640.0548 685.9914 30660.4724 42.2703 136.4952
ENERGY: 600000 3.8485 13.6864 18.0679 0.0000 -10730.4288 1368.8084 0.0000 0.0000 1770.8557 -7555.1620 297.8393 -9326.0177 -7583.4926 300.8598 -439.3247 -366.1808 30623.5478 -175.8352 -98.2682
ENERGY: 900000 6.0089 9.5303 14.9673 0.0000 -10678.9733 1301.1786 0.0000 0.0000 1797.6725 -7549.6156 302.3496 -9347.2882 -7582.2923 300.1553 -1140.6009 -1085.0594 30941.2565 -298.9359 -220.0034
ENERGY: 1200000 5.5612 6.7981 14.4604 0.0000 -10943.5674 1469.8757 0.0000 0.0000 1783.2995 -7663.5726 299.9322 -9446.8721 -7594.7317 299.8263 167.1206 170.2842 30492.1009 -279.3407 -202.7266
ENERGY: 1500000 5.1464 13.5459 12.0949 0.0000 -10833.0483 1451.7453 0.0000 0.0000 1799.8887 -7550.6271 302.7223 -9350.5158 -7591.6482 299.8067 242.8576 345.4265 30473.8686 -207.8604 -128.2903
TCL: Running FEP window   3: Lambda1 0.8999999999999999 Lambda2 0.8499999999999999 [dLambda -0.050000000000000044]
TCL: Setting parameter firsttimestep to 0
TCL: Setting parameter alchLambda to 0.8999999999999999
Info: NONBONDED TABLE R-SQUARED SPACING: 0.0625
Info: NONBONDED TABLE SIZE: 705 POINTS
TCL: Setting parameter alchLambda2 to 0.8499999999999999
Info: NONBONDED TABLE R-SQUARED SPACING: 0.0625
Info: NONBONDED TABLE SIZE: 705 POINTS
TCL: Running for 1500000 steps
ETITLE: TS BOND ANGLE DIHED IMPRP ELECT VDW BOUNDARY MISC KINETIC TOTAL TEMP POTENTIAL TOTALAVG TEMPAVG PRESSURE GPRESSURE VOLUME PRESSAVG GPRESSAVG
ENERGY: 0 5.1464 13.5459 12.0949 0.0000 -10830.8357 1451.4975 0.0000 0.0000 1798.9878 -7549.5632 302.5708 -9348.5511 -7549.5632 302.5708 236.3801 324.8364 30473.8686 236.3801 324.8364
ENERGY: 300000 3.7629 11.7972 13.7524 0.0000 -10819.8463 1443.6950 0.0000 0.0000 1776.9997 -7569.8392 298.8726 -9346.8389 -7533.9046 302.6808 -113.8168 -156.0500 31209.4005 -161.0297 -124.9553
ENERGY: 600000 9.1398 11.3759 13.4667 0.0000 -10841.5717 1491.3096 0.0000 0.0000 1789.4534 -7526.8263 300.9672 -9316.2797 -7563.6752 301.6783 507.6701 604.5539 30545.3880 17.5223 61.0678
ENERGY: 900000 9.3848 11.6959 11.9980 0.0000 -10848.0051 1429.6495 0.0000 0.0000 1801.1216 -7584.1553 302.9297 -9385.2769 -7583.0711 300.5565 -149.3952 -60.0892 30376.2348 -33.1124 17.1933
ENERGY: 1200000 8.5459 13.7363 18.5053 0.0000 -10617.1672 1317.8684 0.0000 0.0000 1803.3172 -7455.1941 303.2990 -9258.5113 -7567.8446 300.5041 -845.8092 -828.3508 31266.2112 -90.6989 -43.5742
ENERGY: 1500000 11.4815 10.4850 13.9885 0.0000 -10723.2901 1406.0886 0.0000 0.0000 1774.8979 -7506.3486 298.5191 -9281.2465 -7559.3124 300.2307 -164.5511 -70.1584 30912.2853 -113.2476 -65.1277
TCL: Running FEP window   4: Lambda1 0.8499999999999999 Lambda2 0.7999999999999998 [dLambda -0.050000000000000044]
TCL: Setting parameter firsttimestep to 0
TCL: Setting parameter alchLambda to 0.8499999999999999
Info: NONBONDED TABLE R-SQUARED SPACING: 0.0625
Info: NONBONDED TABLE SIZE: 705 POINTS
TCL: Setting parameter alchLambda2 to 0.7999999999999998
Info: NONBONDED TABLE R-SQUARED SPACING: 0.0625
Info: NONBONDED TABLE SIZE: 705 POINTS
TCL: Running for 1500000 steps
ETITLE: TS BOND ANGLE DIHED IMPRP ELECT VDW BOUNDARY MISC KINETIC TOTAL TEMP POTENTIAL TOTALAVG TEMPAVG PRESSURE GPRESSURE VOLUME PRESSAVG GPRESSAVG
ENERGY: 0 11.4815 10.4850 13.9885 0.0000 -10721.1437 1406.4657 0.0000 0.0000 1774.0137 -7504.7093 298.3704 -9278.7229 -7504.7093 298.3704 -165.4148 -77.0824 30912.2853 -165.4148 -77.0824
ENERGY: 300000 9.3256 7.2267 12.9116 0.0000 -10867.4781 1433.3162 0.0000 0.0000 1751.4563 -7653.2417 294.5765 -9404.6980 -7542.2236 300.4556 -427.3860 -292.1541 30633.1830 -209.0589 -96.4285
ENERGY: 600000 9.6863 9.0243 10.1172 0.0000 -10892.6919 1460.1275 0.0000 0.0000 1789.4274 -7614.3093 300.9628 -9403.7367 -7547.0631 301.1599 -88.9170 -9.3458 30662.0444 -112.2017 -34.4749
ENERGY: 900000 5.4553 12.2969 12.7771 0.0000 -10950.6981 1562.8157 0.0000 0.0000 1767.1476 -7590.2054 297.2156 -9357.3530 -7555.7175 301.4570 868.4700 885.1971 30548.3551 161.3239 220.5952
ENERGY: 1200000 6.1010 7.4227 11.3465 0.0000 -10900.8851 1464.0465 0.0000 0.0000 1817.7572 -7594.2111 305.7276 -9411.9684 -7572.1390 300.5214 -239.1939 -141.2296 31036.4331 36.3651 103.8109
ENERGY: 1500000 4.2772 17.1561 12.0729 0.0000 -10765.4470 1428.6117 0.0000 0.0000 1793.2294 -7510.0998 301.6023 -9303.3292 -7561.4943 300.9130 321.0974 324.0879 30569.0333 38.3498 104.3133
TCL: Running FEP window   5: Lambda1 0.7999999999999998 Lambda2 0.7499999999999998 [dLambda -0.050000000000000044]
TCL: Setting parameter firsttimestep to 0
TCL: Setting parameter alchLambda to 0.7999999999999998
Info: NONBONDED TABLE R-SQUARED SPACING: 0.0625
Info: NONBONDED TABLE SIZE: 705 POINTS
TCL: Setting parameter alchLambda2 to 0.7499999999999998
Info: NONBONDED TABLE R-SQUARED SPACING: 0.0625
Info: NONBONDED TABLE SIZE: 705 POINTS
TCL: Running for 1500000 steps
ETITLE: TS BOND ANGLE DIHED IMPRP ELECT VDW BOUNDARY MISC KINETIC TOTAL TEMP POTENTIAL TOTALAVG TEMPAVG PRESSURE GPRESSURE VOLUME PRESSAVG GPRESSAVG
ENERGY: 0 4.2772 17.1561 12.0729 0.0000 -10764.7184 1429.1979 0.0000 0.0000 1792.3480 -7509.6663 301.4541 -9302.0144 -7509.6663 301.4541 232.5840 313.3332 30569.0333 232.5840 313.3332
ENERGY: 300000 3.4279 11.8009 13.2988 0.0000 -10753.7377 1457.4390 0.0000 0.0000 1820.2394 -7447.5318 306.1451 -9267.7712 -7551.7427 299.7393 153.4568 228.1451 31262.4253 134.7651 205.2117
ENERGY: 600000 3.7234 10.5937 12.7446 0.0000 -10774.6636 1407.7050 0.0000 0.0000 1758.2059 -7581.6910 295.7117 -9339.8968 -7569.8866 298.2202 -176.7625 -181.8416 30640.9971 -190.7057 -122.4725
ENERGY: 900000 4.8348 13.4337 12.5252 0.0000 -10833.6705 1500.8305 0.0000 0.0000 1775.1118 -7526.9346 298.5551 -9302.0464 -7555.7689 299.6401 426.1190 470.8873 31192.0707 -196.5547 -130.5821
ENERGY: 1200000 6.3860 16.9752 17.0220 0.0000 -10763.2833 1401.8261 0.0000 0.0000 1771.0700 -7550.0040 297.8753 -9321.0740 -7562.3553 298.6679 -243.6251 -187.9775 30885.1678 -232.0861 -163.1049
ENERGY: 1500000 5.4401 16.9337 13.2056 0.0000 -10989.8297 1516.8126 0.0000 0.0000 1771.7896 -7665.6481 297.9964 -9437.4377 -7572.0859 298.6785 396.2857 473.5954 30417.4415 -210.2712 -143.5019
TCL: Running FEP window   6: Lambda1 0.7499999999999998 Lambda2 0.6999999999999997 [dLambda -0.050000000000000044]
TCL: Setting parameter firsttimestep to 0
TCL: Setting parameter alchLambda to 0.7499999999999998
Info: NONBONDED TABLE R-SQUARED SPACING: 0.0625
Info: NONBONDED TABLE SIZE: 705 POINTS
TCL: Setting parameter alchLambda2 to 0.6999999999999997
Info: NONBONDED TABLE R-SQUARED SPACING: 0.0625
Info: NONBONDED TABLE SIZE: 705 POINTS
TCL: Running for 1500000 steps
ETITLE: TS BOND ANGLE DIHED IMPRP ELECT VDW BOUNDARY MISC KINETIC TOTAL TEMP POTENTIAL TOTALAVG TEMPAVG PRESSURE GPRESSURE VOLUME PRESSAVG GPRESSAVG
ENERGY: 0 5.4401 16.9337 13.2056 0.0000 -10987.7939 1516.7070 0.0000 0.0000 1770.8979 -7664.6096 297.8464 -9435.5075 -7664.6096 297.8464 368.8893 452.1563 30417.4415 368.8893 452.1563
ENERGY: 300000 2.5400 8.0786 14.4059 0.0000 -10788.7033 1446.3717 0.0000 0.0000 1833.5367 -7483.7705 308.3816 -9317.3071 -7592.3032 303.9419 286.3019 336.8193 30701.4225 149.2443 195.7840
ENERGY: 600000 5.6059 9.2144 12.0586 0.0000 -10967.3658 1565.3429 0.0000 0.0000 1805.6117 -7569.5324 303.6849 -9375.1441 -7596.5598 301.2574 422.7838 503.2545 31066.3987 259.3379 306.0134
ENERGY: 900000 10.3411 12.8754 11.6106 0.0000 -10736.2659 1380.3430 0.0000 0.0000 1756.6478 -7564.4480 295.4497 -9321.0957 -7584.1439 300.8567 -595.5901 -588.7181 30879.7180 100.9616 152.1863
ENERGY: 1200000 3.8980 12.4280 14.1206 0.0000 -10732.2884 1465.7943 0.0000 0.0000 1754.2438 -7481.8037 295.0453 -9236.0475 -7575.5891 299.8778 423.9110 473.5748 30912.5291 160.0365 206.7331
ENERGY: 1500000 2.9482 17.3148 13.2788 0.0000 -10841.5309 1508.9580 0.0000 0.0000 1820.7480 -7478.2831 306.2306 -9299.0311 -7577.3670 299.7072 698.8287 781.8259 30768.3541 182.4493 230.7241
TCL: Running FEP window   7: Lambda1 0.6999999999999997 Lambda2 0.6499999999999997 [dLambda -0.050000000000000044]
TCL: Setting parameter firsttimestep to 0
TCL: Setting parameter alchLambda to 0.6999999999999997
Info: NONBONDED TABLE R-SQUARED SPACING: 0.0625
Info: NONBONDED TABLE SIZE: 705 POINTS
TCL: Setting parameter alchLambda2 to 0.6499999999999997
Info: NONBONDED TABLE R-SQUARED SPACING: 0.0625
Info: NONBONDED TABLE SIZE: 705 POINTS
TCL: Running for 1500000 steps
ETITLE: TS BOND ANGLE DIHED IMPRP ELECT VDW BOUNDARY MISC KINETIC TOTAL TEMP POTENTIAL TOTALAVG TEMPAVG PRESSURE GPRESSURE VOLUME PRESSAVG GPRESSAVG
ENERGY: 0 2.9482 17.3148 13.2788 0.0000 -10839.6022 1509.2949 0.0000 0.0000 1819.8547 -7476.9108 306.0804 -9296.7655 -7476.9108 306.0804 685.3250 772.0722 30768.3541 685.3250 772.0722
ENERGY: 300000 3.4164 9.6731 12.8716 0.0000 -10740.3348 1417.8718 0.0000 0.0000 1780.6485 -7515.8533 299.4863 -9296.5018 -7509.2771 301.6491 -90.5757 -48.9943 30984.0624 275.4558 355.0236
ENERGY: 600000 5.9045 9.8121 13.5760 0.0000 -10786.8282 1453.1725 0.0000 0.0000 1803.0057 -7501.3575 303.2466 -9304.3632 -7530.9380 300.2852 -233.9328 -170.7550 31480.5230 53.4090 115.2793
ENERGY: 900000 3.0282 12.4059 12.2985 0.0000 -10790.2791 1453.3201 0.0000 0.0000 1788.7672 -7520.4592 300.8518 -9309.2264 -7542.8309 299.7481 21.3688 107.8705 30829.2935 26.7784 84.9787
ENERGY: 1200000 6.4664 10.0230 15.1207 0.0000 -10765.3896 1488.5641 0.0000 0.0000 1753.2092 -7492.0063 294.8713 -9245.2155 -7551.5944 298.5785 406.2412 474.6793 30750.4433 -13.9099 46.4808
ENERGY: 1500000 3.7595 6.8555 15.4341 0.0000 -10902.7933 1488.6538 0.0000 0.0000 1862.2533 -7525.8370 313.2114 -9388.0904 -7551.6628 299.8087 276.9534 350.8105 30703.9032 36.4397 97.2029
TCL: Running FEP window   8: Lambda1 0.6499999999999997 Lambda2 0.5999999999999996 [dLambda -0.050000000000000044]
TCL: Setting parameter firsttimestep to 0
TCL: Setting parameter alchLambda to 0.6499999999999997
Info: NONBONDED TABLE R-SQUARED SPACING: 0.0625
Info: NONBONDED TABLE SIZE: 705 POINTS
TCL: Setting parameter alchLambda2 to 0.5999999999999996
Info: NONBONDED TABLE R-SQUARED SPACING: 0.0625
Info: NONBONDED TABLE SIZE: 705 POINTS
TCL: Running for 1500000 steps
ETITLE: TS BOND ANGLE DIHED IMPRP ELECT VDW BOUNDARY MISC KINETIC TOTAL TEMP POTENTIAL TOTALAVG TEMPAVG PRESSURE GPRESSURE VOLUME PRESSAVG GPRESSAVG
ENERGY: 0 3.7595 6.8555 15.4341 0.0000 -10901.2733 1488.2143 0.0000 0.0000 1861.3470 -7525.6630 313.0590 -9387.0099 -7525.6630 313.0590 253.2998 332.0941 30703.9032 253.2998 332.0941
ENERGY: 300000 7.3122 7.5859 15.3546 0.0000 -10715.4531 1407.5038 0.0000 0.0000 1775.6785 -7502.0182 298.6504 -9277.6967 -7555.6815 303.1832 -3.1825 79.2198 30461.9947 -225.1058 -161.0485
ENERGY: 600000 4.0314 10.0819 12.7247 0.0000 -10748.8556 1439.4535 0.0000 0.0000 1785.2105 -7497.3535 300.2536 -9282.5640 -7535.3375 302.4710 214.7420 231.7586 30905.3560 -241.5321 -190.0908
ENERGY: 900000 2.6819 12.5906 12.6243 0.0000 -10817.1837 1426.6292 0.0000 0.0000 1815.4131 -7547.2446 305.3334 -9362.6577 -7549.1189 301.5848 -484.5376 -398.3789 31131.8381 -194.7997 -143.8216
ENERGY: 1200000 4.7165 9.8240 12.7183 0.0000 -10784.5758 1411.3743 0.0000 0.0000 1852.6569 -7493.2858 311.5974 -9345.9426 -7540.4452 302.3725 -394.4621 -249.3960 31118.8547 -225.9167 -164.9377
ENERGY: 1500000 4.7414 7.5979 12.4803 0.0000 -10781.1490 1395.0740 0.0000 0.0000 1764.3791 -7596.8763 296.7500 -9361.2555 -7543.1137 301.7548 -494.1496 -396.4420 30742.1405 -247.0488 -178.1354
TCL: Running FEP window   9: Lambda1 0.5999999999999996 Lambda2 0.5499999999999996 [dLambda -0.050000000000000044]
TCL: Setting parameter firsttimestep to 0
TCL: Setting parameter alchLambda to 0.5999999999999996
Info: NONBONDED TABLE R-SQUARED SPACING: 0.0625
Info: NONBONDED TABLE SIZE: 705 POINTS
TCL: Setting parameter alchLambda2 to 0.5499999999999996
Info: NONBONDED TABLE R-SQUARED SPACING: 0.0625
Info: NONBONDED TABLE SIZE: 705 POINTS
TCL: Running for 1500000 steps
ETITLE: TS BOND ANGLE DIHED IMPRP ELECT VDW BOUNDARY MISC KINETIC TOTAL TEMP POTENTIAL TOTALAVG TEMPAVG PRESSURE GPRESSURE VOLUME PRESSAVG GPRESSAVG
ENERGY: 0 4.7414 7.5979 12.4803 0.0000 -10780.9136 1395.5754 0.0000 0.0000 1763.5141 -7597.0044 296.6045 -9360.5185 -7597.0044 296.6045 -475.3837 -404.2686 30742.1405 -475.3837 -404.2686
ENERGY: 300000 5.2834 10.3734 16.8373 0.0000 -10791.2880 1380.2858 0.0000 0.0000 1849.2049 -7529.3032 311.0168 -9378.5081 -7552.8058 299.5823 -773.6766 -658.4145 30950.4810 -413.4158 -337.8866
ENERGY: 600000 2.6230 9.7075 16.1837 0.0000 -10852.9001 1494.8228 0.0000 0.0000 1783.1912 -7546.3719 299.9140 -9329.5631 -7541.1253 300.5051 438.2077 476.2631 30660.1044 -280.2306 -222.9878
ENERGY: 900000 6.1777 8.5916 16.6958 0.0000 -10889.0083 1446.6613 0.0000 0.0000 1747.0309 -7663.8509 293.8322 -9410.8818 -7557.0480 299.8225 -265.7193 -251.0130 30635.4168 -367.5769 -311.1347
ENERGY: 1200000 4.2359 6.5585 10.6336 0.0000 -10900.1010 1487.9502 0.0000 0.0000 1800.7493 -7589.9736 302.8671 -9390.7229 -7560.3514 300.9958 352.2234 386.4912 30601.0240 -305.1612 -252.6945
ENERGY: 1500000 5.8695 9.6963 15.0707 0.0000 -10875.8510 1497.1831 0.0000 0.0000 1820.7678 -7527.2636 306.2340 -9348.0314 -7563.3435 300.8311 494.1055 554.1620 30359.8923 -208.0468 -154.5586
TCL: Running FEP window  10: Lambda1 0.5499999999999996 Lambda2 0.4999999999999996 [dLambda -0.04999999999999999]
TCL: Setting parameter firsttimestep to 0
TCL: Setting parameter alchLambda to 0.5499999999999996
Info: NONBONDED TABLE R-SQUARED SPACING: 0.0625
Info: NONBONDED TABLE SIZE: 705 POINTS
TCL: Setting parameter alchLambda2 to 0.4999999999999996
Info: NONBONDED TABLE R-SQUARED SPACING: 0.0625
Info: NONBONDED TABLE SIZE: 705 POINTS
TCL: Running for 1500000 steps
ETITLE: TS BOND ANGLE DIHED IMPRP ELECT VDW BOUNDARY MISC KINETIC TOTAL TEMP POTENTIAL TOTALAVG TEMPAVG PRESSURE GPRESSURE VOLUME PRESSAVG GPRESSAVG
ENERGY: 0 5.8695 9.6963 15.0707 0.0000 -10875.0370 1497.4393 0.0000 0.0000 1819.9163 -7527.0449 306.0908 -9346.9612 -7527.0449 306.0908 464.9705 541.7958 30359.8923 464.9705 541.7958
ENERGY: 300000 7.0623 8.8729 12.8160 0.0000 -10859.0098 1447.0327 0.0000 0.0000 1759.4238 -7623.8022 295.9166 -9383.2260 -7561.8683 302.3171 -164.1863 -142.7567 30858.0339 -63.7033 -27.8639
ENERGY: 600000 5.5871 8.6429 11.5446 0.0000 -10715.1132 1395.8819 0.0000 0.0000 1793.3892 -7500.0675 301.6292 -9293.4567 -7535.4081 304.1225 -256.1751 -155.1602 30977.4646 97.3664 159.6717
ENERGY: 900000 4.3538 13.5843 19.4971 0.0000 -10809.3982 1437.1675 0.0000 0.0000 1779.5787 -7555.2167 299.3064 -9334.7954 -7546.4473 303.4096 -45.3900 11.6128 30474.2419 22.5167 77.5104
ENERGY: 1200000 4.0138 9.1447 14.0974 0.0000 -10789.7802 1382.1031 0.0000 0.0000 1784.3216 -7596.0996 300.1041 -9380.4212 -7552.7156 302.4779 -534.2095 -515.1230 30741.8620 -149.5942 -95.6895
ENERGY: 1500000 6.5002 10.5834 11.1648 0.0000 -10788.2969 1467.0629 0.0000 0.0000 1809.6571 -7483.3285 304.3653 -9292.9856 -7553.3749 302.4306 325.3139 415.8827 30463.1474 -76.7881 -17.6577
TCL: Running FEP window  11: Lambda1 0.4999999999999996 Lambda2 0.4499999999999996 [dLambda -0.04999999999999999]
TCL: Setting parameter firsttimestep to 0
TCL: Setting parameter alchLambda to 0.4999999999999996
Info: NONBONDED TABLE R-SQUARED SPACING: 0.0625
Info: NONBONDED TABLE SIZE: 705 POINTS
TCL: Setting parameter alchLambda2 to 0.4499999999999996
Info: NONBONDED TABLE R-SQUARED SPACING: 0.0625
Info: NONBONDED TABLE SIZE: 705 POINTS
TCL: Running for 1500000 steps
ETITLE: TS BOND ANGLE DIHED IMPRP ELECT VDW BOUNDARY MISC KINETIC TOTAL TEMP POTENTIAL TOTALAVG TEMPAVG PRESSURE GPRESSURE VOLUME PRESSAVG GPRESSAVG
ENERGY: 0 6.5002 10.5833 11.1648 0.0000 -10786.9329 1467.5397 0.0000 0.0000 1808.8018 -7482.3431 304.2214 -9291.1449 -7482.3431 304.2214 312.3753 409.4982 30463.1474 312.3753 409.4982
ENERGY: 300000 4.9112 15.7931 14.0277 0.0000 -10960.2747 1516.7453 0.0000 0.0000 1772.7793 -7636.0181 298.1628 -9408.7974 -7573.1045 300.7537 288.2841 328.5430 30624.9601 541.5670 602.3480
ENERGY: 600000 7.9073 7.6542 15.7803 0.0000 -10865.5622 1479.3290 0.0000 0.0000 1752.4741 -7602.4173 294.7477 -9354.8914 -7575.2024 299.4453 0.7631 54.7551 30442.0111 276.5599 327.6940
ENERGY: 900000 4.8402 9.1768 14.9389 0.0000 -10826.7611 1424.4046 0.0000 0.0000 1783.5384 -7589.8620 299.9724 -9373.4005 -7555.2949 300.7019 -481.2584 -446.7046 30735.9696 175.0883 231.3188
ENERGY: 1200000 7.2075 8.6575 13.2379 0.0000 -10822.6955 1459.4375 0.0000 0.0000 1809.8360 -7524.3191 304.3953 -9334.1551 -7548.1758 301.0920 216.4195 213.6750 30778.3212 141.5397 195.4424
ENERGY: 1500000 6.9866 8.7437 16.3695 0.0000 -10848.1370 1431.2125 0.0000 0.0000 1815.0582 -7569.7665 305.2737 -9384.8247 -7554.7885 300.4994 -317.3580 -280.7703 30835.5602 158.1850 210.7599
TCL: Running FEP window  12: Lambda1 0.4499999999999996 Lambda2 0.39999999999999963 [dLambda -0.04999999999999999]
TCL: Setting parameter firsttimestep to 0
TCL: Setting parameter alchLambda to 0.4499999999999996
Info: NONBONDED TABLE R-SQUARED SPACING: 0.0625
Info: NONBONDED TABLE SIZE: 705 POINTS
TCL: Setting parameter alchLambda2 to 0.39999999999999963
Info: NONBONDED TABLE R-SQUARED SPACING: 0.0625
Info: NONBONDED TABLE SIZE: 705 POINTS
TCL: Running for 1500000 steps
ETITLE: TS BOND ANGLE DIHED IMPRP ELECT VDW BOUNDARY MISC KINETIC TOTAL TEMP POTENTIAL TOTALAVG TEMPAVG PRESSURE GPRESSURE VOLUME PRESSAVG GPRESSAVG
ENERGY: 0 6.9866 8.7437 16.3695 0.0000 -10848.1367 1431.2833 0.0000 0.0000 1814.1577 -7570.5959 305.1222 -9384.7536 -7570.5959 305.1222 -375.4438 -289.9781 30835.5602 -375.4438 -289.9781
ENERGY: 300000 3.7118 15.9097 12.2484 0.0000 -10840.1039 1464.0695 0.0000 0.0000 1770.3902 -7573.7742 297.7610 -9344.1644 -7576.4980 301.7973 26.4210 -4.0668 30638.7607 -109.8448 -76.1045
ENERGY: 600000 4.2420 11.1500 12.0120 0.0000 -10886.7128 1493.1792 0.0000 0.0000 1730.8015 -7635.3281 291.1026 -9366.1296 -7596.7288 298.5981 97.7009 115.2338 30652.3068 9.9249 36.0414
ENERGY: 900000 3.8919 12.1572 13.1057 0.0000 -10891.9161 1478.6416 0.0000 0.0000 1730.4269 -7653.6928 291.0396 -9384.1198 -7595.2285 298.1538 76.1836 111.1374 30657.1967 47.2751 83.6613
ENERGY: 1200000 7.0672 9.2214 16.0921 0.0000 -10690.2526 1373.1770 0.0000 0.0000 1828.6577 -7456.0371 307.5610 -9284.6949 -7575.7269 299.4572 -424.8798 -356.0154 31065.8631 67.4612 113.1222
ENERGY: 1500000 4.6336 10.4107 14.7574 0.0000 -10778.3016 1483.3724 0.0000 0.0000 1771.3990 -7493.7286 297.9307 -9265.1276 -7559.2611 300.4227 340.8498 401.5244 30765.1676 77.6103 122.9287
TCL: Running FEP window  13: Lambda1 0.39999999999999963 Lambda2 0.34999999999999964 [dLambda -0.04999999999999999]
TCL: Setting parameter firsttimestep to 0
TCL: Setting parameter alchLambda to 0.39999999999999963
Info: NONBONDED TABLE R-SQUARED SPACING: 0.0625
Info: NONBONDED TABLE SIZE: 705 POINTS
TCL: Setting parameter alchLambda2 to 0.34999999999999964
Info: NONBONDED TABLE R-SQUARED SPACING: 0.0625
Info: NONBONDED TABLE SIZE: 705 POINTS
TCL: Running for 1500000 steps
ETITLE: TS BOND ANGLE DIHED IMPRP ELECT VDW BOUNDARY MISC KINETIC TOTAL TEMP POTENTIAL TOTALAVG TEMPAVG PRESSURE GPRESSURE VOLUME PRESSAVG GPRESSAVG
ENERGY: 0 4.6336 10.4107 14.7574 0.0000 -10778.3024 1484.0606 0.0000 0.0000 1770.5301 -7493.9100 297.7845 -9264.4401 -7493.9100 297.7845 307.6723 395.9342 30765.1676 307.6723 395.9342
ENERGY: 300000 4.1732 8.0389 11.9126 0.0000 -10755.1763 1423.3144 0.0000 0.0000 1791.8343 -7515.9029 301.3677 -9307.7372 -7524.0489 298.3695 -217.6340 -158.7896 30767.7203 22.3077 85.5278
ENERGY: 600000 5.3778 13.9780 12.3179 0.0000 -10839.4913 1495.8746 0.0000 0.0000 1826.0278 -7485.9153 307.1186 -9311.9431 -7517.4805 299.7948 689.6067 706.0997 30445.1299 41.8226 101.2149
ENERGY: 900000 6.6994 12.9185 12.2597 0.0000 -10707.5087 1445.1439 0.0000 0.0000 1814.4894 -7415.9980 305.1780 -9230.4873 -7514.5524 301.6463 100.7690 112.0513 31037.3024 75.8147 133.6760
ENERGY: 1200000 4.4831 7.2254 14.7974 0.0000 -10815.4884 1447.1193 0.0000 0.0000 1824.9893 -7516.8739 306.9440 -9341.8632 -7505.5045 302.4442 171.9827 181.2836 30505.6835 70.9810 123.0482
ENERGY: 1500000 7.3458 14.7537 13.2703 0.0000 -10917.9416 1489.0427 0.0000 0.0000 1761.8308 -7631.6984 296.3214 -9393.5292 -7522.8403 301.4085 -204.2503 -139.2124 30860.7787 53.7035 109.0419
TCL: Running FEP window  14: Lambda1 0.34999999999999964 Lambda2 0.29999999999999966 [dLambda -0.04999999999999999]
TCL: Setting parameter firsttimestep to 0
TCL: Setting parameter alchLambda to 0.34999999999999964
Info: NONBONDED TABLE R-SQUARED SPACING: 0.0625
Info: NONBONDED TABLE SIZE: 705 POINTS
TCL: Setting parameter alchLambda2 to 0.29999999999999966
Info: NONBONDED TABLE R-SQUARED SPACING: 0.0625
Info: NONBONDED TABLE SIZE: 705 POINTS
TCL: Running for 1500000 steps
ETITLE: TS BOND ANGLE DIHED IMPRP ELECT VDW BOUNDARY MISC KINETIC TOTAL TEMP POTENTIAL TOTALAVG TEMPAVG PRESSURE GPRESSURE VOLUME PRESSAVG GPRESSAVG
ENERGY: 0 7.3458 14.7537 13.2703 0.0000 -10917.9411 1489.8890 0.0000 0.0000 1760.9093 -7631.7730 296.1664 -9392.6823 -7631.7730 296.1664 -206.1998 -141.0652 30860.7787 -206.1998 -141.0652
ENERGY: 300000 7.8905 5.9872 13.9195 0.0000 -10787.2932 1447.3756 0.0000 0.0000 1810.0796 -7502.0407 304.4363 -9312.1203 -7551.6958 298.4216 168.6166 181.5041 30863.1077 -141.2768 -78.9123
ENERGY: 600000 7.4738 11.7711 11.8863 0.0000 -10917.1100 1477.4596 0.0000 0.0000 1802.1181 -7606.4010 303.0973 -9408.5192 -7536.9505 301.0725 4.7300 57.9964 30666.8967 -128.3479 -66.1620
ENERGY: 900000 2.3439 10.7106 15.3002 0.0000 -10771.2239 1445.7131 0.0000 0.0000 1808.1732 -7488.9830 304.1157 -9297.1562 -7539.7405 300.5921 73.4687 139.8603 30596.9292 -188.3960 -127.1925
ENERGY: 1200000 6.5192 15.0987 14.0249 0.0000 -10767.8566 1417.8319 0.0000 0.0000 1790.1030 -7524.2790 301.0765 -9314.3820 -7537.5350 300.1826 -114.3972 -140.1669 30841.4869 -259.0265 -199.1474
ENERGY: 1500000 6.7639 9.2713 12.8963 0.0000 -10759.7565 1400.8515 0.0000 0.0000 1775.7402 -7554.2333 298.6608 -9329.9735 -7536.2474 300.4364 -251.4013 -206.9619 30372.6296 -268.5385 -209.4403
TCL: Running FEP window  15: Lambda1 0.29999999999999966 Lambda2 0.24999999999999967 [dLambda -0.04999999999999999]
TCL: Setting parameter firsttimestep to 0
TCL: Setting parameter alchLambda to 0.29999999999999966
Info: NONBONDED TABLE R-SQUARED SPACING: 0.0625
Info: NONBONDED TABLE SIZE: 705 POINTS
TCL: Setting parameter alchLambda2 to 0.24999999999999967
Info: NONBONDED TABLE R-SQUARED SPACING: 0.0625
Info: NONBONDED TABLE SIZE: 705 POINTS
TCL: Running for 1500000 steps
ETITLE: TS BOND ANGLE DIHED IMPRP ELECT VDW BOUNDARY MISC KINETIC TOTAL TEMP POTENTIAL TOTALAVG TEMPAVG PRESSURE GPRESSURE VOLUME PRESSAVG GPRESSAVG
ENERGY: 0 6.7640 9.2713 12.8963 0.0000 -10759.7564 1401.2745 0.0000 0.0000 1774.8738 -7554.6764 298.5151 -9329.5503 -7554.6764 298.5151 -298.0911 -209.3721 30372.6296 -298.0911 -209.3721
ENERGY: 300000 3.8359 11.5485 11.9014 0.0000 -10785.5443 1458.0873 0.0000 0.0000 1783.7097 -7516.4615 300.0012 -9300.1712 -7548.4825 299.9939 -136.7118 -53.0897 31120.4897 -279.3045 -211.5744
ENERGY: 600000 6.6478 8.3081 12.1993 0.0000 -10930.6174 1497.1999 0.0000 0.0000 1813.8835 -7592.3788 305.0761 -9406.2623 -7564.0673 299.6415 63.1694 107.7218 30586.4047 143.5512 199.3442
ENERGY: 900000 12.2097 11.3556 11.2126 0.0000 -10983.1666 1552.9476 0.0000 0.0000 1808.2300 -7587.2111 304.1252 -9395.4411 -7562.1334 300.4868 892.8571 982.7989 29840.2541 176.0491 234.7802
ENERGY: 1200000 7.3330 8.8095 12.5226 0.0000 -10904.2336 1490.7302 0.0000 0.0000 1701.1109 -7683.7274 286.1089 -9384.8383 -7560.4924 299.7024 -214.9390 -143.2809 30908.3649 107.9346 175.2311
ENERGY: 1500000 4.4223 6.2116 15.8650 0.0000 -10887.2152 1513.0216 0.0000 0.0000 1782.9892 -7564.7054 299.8800 -9347.6946 -7573.1056 299.5918 395.2887 439.5439 30974.0988 190.3924 251.7719
TCL: Running FEP window  16: Lambda1 0.24999999999999967 Lambda2 0.19999999999999968 [dLambda -0.04999999999999999]
TCL: Setting parameter firsttimestep to 0
TCL: Setting parameter alchLambda to 0.24999999999999967
Info: NONBONDED TABLE R-SQUARED SPACING: 0.0625
Info: NONBONDED TABLE SIZE: 705 POINTS
TCL: Setting parameter alchLambda2 to 0.19999999999999968
Info: NONBONDED TABLE R-SQUARED SPACING: 0.0625
Info: NONBONDED TABLE SIZE: 705 POINTS
TCL: Running for 1500000 steps
ETITLE: TS BOND ANGLE DIHED IMPRP ELECT VDW BOUNDARY MISC KINETIC TOTAL TEMP POTENTIAL TOTALAVG TEMPAVG PRESSURE GPRESSURE VOLUME PRESSAVG GPRESSAVG
ENERGY: 0 4.4223 6.2116 15.8650 0.0000 -10887.2146 1513.8426 0.0000 0.0000 1782.1062 -7564.7667 299.7315 -9346.8729 -7564.7667 299.7315 347.7575 436.7031 30974.0988 347.7575 436.7031
ENERGY: 300000 4.1147 12.2921 13.7775 0.0000 -10802.0354 1421.2714 0.0000 0.0000 1811.9913 -7538.5885 304.7579 -9350.5798 -7573.8950 300.1211 -354.7276 -245.1612 30873.9244 121.7257 206.6121
ENERGY: 600000 2.7842 10.2016 13.9164 0.0000 -10795.0305 1481.5182 0.0000 0.0000 1782.7741 -7503.8361 299.8438 -9286.6102 -7553.5172 300.2159 301.9653 352.1459 30755.8639 7.8603 67.2357
ENERGY: 900000 6.9776 9.4759 12.5434 0.0000 -10810.8922 1364.0538 0.0000 0.0000 1787.9777 -7629.8638 300.7190 -9417.8415 -7554.5564 301.0034 -892.8958 -868.3590 30301.8931 -107.2935 -47.7539
ENERGY: 1200000 7.1620 12.3572 13.9149 0.0000 -10738.0583 1383.2626 0.0000 0.0000 1792.8228 -7528.5387 301.5339 -9321.3616 -7568.9462 300.5002 -775.5119 -720.0407 30982.0417 -116.3439 -62.7906
ENERGY: 1500000 7.3976 10.8710 12.9446 0.0000 -10839.0305 1410.1275 0.0000 0.0000 1832.3446 -7565.3452 308.1811 -9397.6898 -7568.1254 300.8770 -576.9106 -527.2127 30569.1811 -129.4803 -75.9144
TCL: Running FEP window  17: Lambda1 0.19999999999999968 Lambda2 0.1499999999999997 [dLambda -0.04999999999999999]
TCL: Setting parameter firsttimestep to 0
TCL: Setting parameter alchLambda to 0.19999999999999968
Info: NONBONDED TABLE R-SQUARED SPACING: 0.0625
Info: NONBONDED TABLE SIZE: 705 POINTS
TCL: Setting parameter alchLambda2 to 0.1499999999999997
Info: NONBONDED TABLE R-SQUARED SPACING: 0.0625
Info: NONBONDED TABLE SIZE: 705 POINTS
TCL: Running for 1500000 steps
ETITLE: TS BOND ANGLE DIHED IMPRP ELECT VDW BOUNDARY MISC KINETIC TOTAL TEMP POTENTIAL TOTALAVG TEMPAVG PRESSURE GPRESSURE VOLUME PRESSAVG GPRESSAVG
ENERGY: 0 7.3976 10.8710 12.9446 0.0000 -10839.0315 1410.5482 0.0000 0.0000 1831.4534 -7565.8167 308.0312 -9397.2701 -7565.8167 308.0312 -603.1060 -533.2756 30569.1811 -603.1060 -533.2756
ENERGY: 300000 3.1498 9.8756 12.8179 0.0000 -10863.5723 1529.5433 0.0000 0.0000 1810.0740 -7498.1116 304.4354 -9308.1856 -7582.0925 302.3940 647.6231 735.1816 30569.0283 -227.3998 -187.0512
ENERGY: 600000 5.6788 6.7635 15.8660 0.0000 -10829.3313 1441.4741 0.0000 0.0000 1762.3202 -7597.2287 296.4037 -9359.5488 -7567.6075 302.3528 -337.9068 -305.0131 30654.4677 -177.7544 -122.5636
ENERGY: 900000 5.4048 11.2067 11.9579 0.0000 -10916.1639 1481.2207 0.0000 0.0000 1797.6172 -7608.7567 302.3403 -9406.3739 -7556.6999 302.3664 219.2494 263.9963 30017.0002 -142.7317 -90.2847
ENERGY: 1200000 4.9016 5.0316 15.9062 0.0000 -10917.4729 1475.4787 0.0000 0.0000 1781.6258 -7634.5290 299.6507 -9416.1548 -7553.3911 302.7441 277.0966 352.5501 29739.3983 -130.2722 -79.3941
ENERGY: 1500000 4.3372 8.7597 11.2257 0.0000 -10725.8986 1354.6302 0.0000 0.0000 1735.3915 -7611.5543 291.8746 -9346.9458 -7566.4907 300.7463 -705.7617 -639.7348 30462.6920 -219.1652 -171.5585
TCL: Running FEP window  18: Lambda1 0.1499999999999997 Lambda2 0.09999999999999969 [dLambda -0.05 ]
TCL: Setting parameter firsttimestep to 0
TCL: Setting parameter alchLambda to 0.1499999999999997
Info: NONBONDED TABLE R-SQUARED SPACING: 0.0625
Info: NONBONDED TABLE SIZE: 705 POINTS
TCL: Setting parameter alchLambda2 to 0.09999999999999969
Info: NONBONDED TABLE R-SQUARED SPACING: 0.0625
Info: NONBONDED TABLE SIZE: 705 POINTS
TCL: Running for 1500000 steps
ETITLE: TS BOND ANGLE DIHED IMPRP ELECT VDW BOUNDARY MISC KINETIC TOTAL TEMP POTENTIAL TOTALAVG TEMPAVG PRESSURE GPRESSURE VOLUME PRESSAVG GPRESSAVG
ENERGY: 0 4.3372 8.7597 11.2257 0.0000 -10725.8974 1355.0675 0.0000 0.0000 1734.4837 -7612.0236 291.7219 -9346.5073 -7612.0236 291.7219 -739.5846 -644.7307 30462.6920 -739.5846 -644.7307
ENERGY: 300000 4.5108 8.0070 14.2105 0.0000 -10753.7248 1393.6636 0.0000 0.0000 1747.1219 -7586.2110 293.8475 -9333.3329 -7590.3522 296.2841 -685.7782 -638.4212 30804.3564 -426.3674 -371.1098
ENERGY: 600000 7.3403 7.2290 16.8947 0.0000 -10584.4403 1282.8054 0.0000 0.0000 1756.8040 -7513.3669 295.4759 -9270.1709 -7589.1777 296.3102 -1094.9648 -975.6239 30702.9374 -404.6901 -342.6839
ENERGY: 900000 6.6303 10.4622 9.9386 0.0000 -10700.2586 1420.0624 0.0000 0.0000 1760.6823 -7492.4828 296.1282 -9253.1651 -7570.6491 297.5867 -113.6106 -69.9833 31012.6625 -346.4543 -288.3182
ENERGY: 1200000 2.2933 14.1799 14.7675 0.0000 -10966.0077 1554.6281 0.0000 0.0000 1789.2053 -7590.9336 300.9255 -9380.1389 -7564.1884 298.3806 621.2033 658.8845 30490.1229 -180.5717 -118.4506
ENERGY: 1500000 3.9027 12.7588 11.9082 0.0000 -10712.8451 1393.7061 0.0000 0.0000 1810.7179 -7479.8514 304.5437 -9290.5694 -7549.6513 299.2673 -648.0068 -579.7663 31157.3624 -242.0778 -178.5127
TCL: Running FEP window  19: Lambda1 0.09999999999999969 Lambda2 0.049999999999999684 [dLambda -0.05 ]
TCL: Setting parameter firsttimestep to 0
TCL: Setting parameter alchLambda to 0.09999999999999969
Info: NONBONDED TABLE R-SQUARED SPACING: 0.0625
Info: NONBONDED TABLE SIZE: 705 POINTS
TCL: Setting parameter alchLambda2 to 0.049999999999999684
Info: NONBONDED TABLE R-SQUARED SPACING: 0.0625
Info: NONBONDED TABLE SIZE: 705 POINTS
TCL: Running for 1500000 steps
ETITLE: TS BOND ANGLE DIHED IMPRP ELECT VDW BOUNDARY MISC KINETIC TOTAL TEMP POTENTIAL TOTALAVG TEMPAVG PRESSURE GPRESSURE VOLUME PRESSAVG GPRESSAVG
ENERGY: 0 3.9026 12.7588 11.9082 0.0000 -10712.8434 1393.2033 0.0000 0.0000 1809.8080 -7481.2624 304.3906 -9291.0704 -7481.2624 304.3906 -665.9666 -585.9099 31157.3624 -665.9666 -585.9099
ENERGY: 300000 5.1546 10.7662 13.1572 0.0000 -10693.0760 1415.8121 0.0000 0.0000 1826.1069 -7422.0788 307.1320 -9248.1858 -7513.8382 302.0812 -187.6692 -153.4295 30954.7117 -87.5132 -12.5290
ENERGY: 600000 7.8701 10.0278 15.5046 0.0000 -10698.0453 1370.2756 0.0000 0.0000 1753.9188 -7540.4485 294.9907 -9294.3673 -7539.4227 301.1219 -786.7713 -692.9743 30859.4780 -388.1714 -320.8472
ENERGY: 900000 4.4508 9.6243 12.7974 0.0000 -10709.0581 1400.9573 0.0000 0.0000 1747.9289 -7533.2994 293.9832 -9281.2283 -7546.2058 299.8576 -138.0213 -92.3273 30476.4651 -106.2985 -43.7251
ENERGY: 1200000 5.3042 10.7298 17.0665 0.0000 -10738.6675 1372.1950 0.0000 0.0000 1805.6091 -7527.7629 303.6844 -9333.3720 -7539.3507 300.3065 -598.9718 -506.8487 30224.7425 -112.0172 -49.2440
ENERGY: 1500000 6.1361 8.7063 17.5001 0.0000 -10706.6315 1401.3860 0.0000 0.0000 1785.3371 -7487.5658 300.2749 -9272.9029 -7537.9553 300.2534 -357.8962 -295.0759 31055.6141 -97.2180 -39.2057
TCL: Running FEP window  20: Lambda1 0.049999999999999684 Lambda2 0.0    [dLambda -0.049999999999999684]
TCL: Setting parameter firsttimestep to 0
TCL: Setting parameter alchLambda to 0.049999999999999684
Info: NONBONDED TABLE R-SQUARED SPACING: 0.0625
Info: NONBONDED TABLE SIZE: 705 POINTS
TCL: Setting parameter alchLambda2 to 0.0
Info: NONBONDED TABLE R-SQUARED SPACING: 0.0625
Info: NONBONDED TABLE SIZE: 705 POINTS
TCL: Running for 1500000 steps
ETITLE: TS BOND ANGLE DIHED IMPRP ELECT VDW BOUNDARY MISC KINETIC TOTAL TEMP POTENTIAL TOTALAVG TEMPAVG PRESSURE GPRESSURE VOLUME PRESSAVG GPRESSAVG
ENERGY: 0 6.1361 8.7063 17.5001 0.0000 -10706.6313 1401.2354 0.0000 0.0000 1784.4315 -7488.6218 300.1226 -9273.0533 -7488.6218 300.1226 -390.3970 -300.4573 31055.6141 -390.3970 -300.4573
ENERGY: 300000 4.0139 8.2234 13.1690 0.0000 -10878.1350 1517.8368 0.0000 0.0000 1776.1547 -7558.7373 298.7305 -9334.8920 -7554.2881 300.2470 544.5546 576.0214 30574.9751 -88.4435 -56.3411
ENERGY: 600000 9.3218 11.4206 13.4467 0.0000 -10824.6538 1487.7756 0.0000 0.0000 1743.4502 -7559.2388 293.2300 -9302.6890 -7542.0988 300.0149 267.3095 311.0819 30523.5775 27.7160 77.7148
ENERGY: 900000 6.4985 10.6026 11.9007 0.0000 -10872.1104 1527.1153 0.0000 0.0000 1816.1669 -7499.8264 305.4602 -9315.9933 -7536.6436 300.9951 519.5622 624.3671 30248.7365 137.1489 190.7753
ENERGY: 1200000 5.0398 10.8165 11.5956 0.0000 -10863.3817 1504.9610 0.0000 0.0000 1769.8443 -7561.1246 297.6692 -9330.9689 -7548.5297 299.9647 175.8731 276.4592 30599.6482 158.4503 210.1771
ENERGY: 1500000 4.3078 3.6610 15.0942 0.0000 -10919.7782 1498.0412 0.0000 0.0000 1751.3598 -7647.3142 294.5603 -9398.6740 -7546.8124 299.9547 332.1730 357.4195 30051.2746 123.8618 173.9984
TCL: Exiting due to exit command.
