Info: SIMULATION PARAMETERS:
Info: TIMESTEP               2
Info: NUMBER OF STEPS        0
Info: STEPS PER CYCLE        10
Info: PERIODIC CELL BASIS 1  29.2616 0 0
Info: PERIODIC CELL BASIS 2  0 33.2613 0
Info: PERIODIC CELL BASIS 3  0 0 31.437
Info: PERIODIC CELL CENTER   0 0 0
Info: WRAPPING WATERS AROUND PERIODIC BOUNDARIES ON OUTPUT.
Info: WRAPPING ALL CLUSTERS AROUND PERIODIC BOUNDARIES ON OUTPUT.
Info: FIRST LDB TIMESTEP     50
Info: LAST LDB TIMESTEP     -1
Info: HOM BACKGROUND SCALING 1
Info: PME BACKGROUND SCALING 1
Info: MIN ATOMS PER PATCH    40
Info: EMPTY PATCH LOAD       40 ATOMS
Info: VELOCITY FILE          mobley_3525176_equil.vel
Info: CENTER OF MASS MOVING INITIALLY? NO
Info: DIELECTRIC             1
Info: EXCLUDE                SCALED ONE-FOUR
Info: 1-4 ELECTROSTATICS SCALED BY 0.833333
Info: MODIFIED 1-4 VDW PARAMETERS WILL BE USED
Info: DCD FILENAME           mobley_3525176_prod.dcd
Info: DCD FREQUENCY          100000
Info: DCD FIRST STEP         100000
Info: DCD FILE WILL CONTAIN UNIT CELL DATA
Info: XST FILENAME           mobley_3525176_prod.xst
Info: XST FREQUENCY          100000
Info: NO VELOCITY DCD OUTPUT
Info: NO FORCE DCD OUTPUT
Info: OUTPUT FILENAME        mobley_3525176_prod
Info: BINARY OUTPUT FILES WILL BE USED
Info: RESTART FILENAME       mobley_3525176_prod.restart
Info: RESTART FREQUENCY      100000
Info: BINARY RESTART FILES WILL BE USED
Info: CUTOFF                 9
Info: PAIRLIST DISTANCE      11
Info: PAIRLIST SHRINK RATE   0.01
Info: PAIRLIST GROW RATE     0.01
Info: PAIRLIST TRIGGER       0.3
Info: PAIRLISTS PER CYCLE    2
Info: PAIRLISTS ENABLED
Info: MARGIN                 2
Info: HYDROGEN GROUP CUTOFF  2.5
Info: PATCH DIMENSION        15.5
Info: ENERGY OUTPUT STEPS    100000
Info: ENERGY EVALUATION STEPS    100000
Info: OUTPUT ENERGY PRECISION 4
Info: CROSSTERM ENERGY INCLUDED IN DIHEDRAL
Info: TIMING OUTPUT STEPS    1000000
Info: PRESSURE OUTPUT STEPS  100000
Info: ALCHEMICAL FEP ON
Info: FEP CURRENT LAMBDA VALUE     0
Info: FEP COMPARISON LAMBDA VALUE  0.05
Info: FEP INTRA-ALCHEMICAL NON-BONDED INTERACTIONS WILL BE RETAINED
Info: FEP INTRA-ALCHEMICAL BONDED INTERACTIONS WILL BE RETAINED
Info: FEP VDW SHIFTING COEFFICIENT 5
Info: FEP ELEC. ACTIVE FOR ANNIHILATED PARTICLES BETWEEN LAMBDA = 0 AND LAMBDA = 0.5
Info: FEP ELEC. ACTIVE FOR EXNIHILATED PARTICLES BETWEEN LAMBDA = 0.5 AND LAMBDA = 1
Info: FEP VDW ACTIVE FOR ANNIHILATED PARTICLES BETWEEN LAMBDA = 0 AND LAMBDA = 1
Info: FEP VDW ACTIVE FOR EXNIHILATED PARTICLES BETWEEN LAMBDA = 0 AND LAMBDA = 1
Info: FEP BOND ACTIVE FOR ANNIHILATED PARTICLES BETWEEN LAMBDA = 1 AND LAMBDA = 1
Info: FEP BOND ACTIVE FOR EXNIHILATED PARTICLES BETWEEN LAMBDA = 0 AND LAMBDA = 0
Info: LANGEVIN DYNAMICS ACTIVE
Info: LANGEVIN TEMPERATURE   300
Info: LANGEVIN USING BBK INTEGRATOR
Info: LANGEVIN DAMPING COEFFICIENT IS 1 INVERSE PS
Info: LANGEVIN DYNAMICS APPLIED TO HYDROGENS
Info: LANGEVIN PISTON PRESSURE CONTROL ACTIVE
Info:        TARGET PRESSURE IS 1.01325 BAR
Info:     OSCILLATION PERIOD IS 50 FS
Info:             DECAY TIME IS 25 FS
Info:     PISTON TEMPERATURE IS 300 K
Info:       PRESSURE CONTROL IS GROUP-BASED
Info:    INITIAL STRAIN RATE IS 8.47319e-06 8.47319e-06 8.47319e-06
Info:       CELL FLUCTUATION IS ISOTROPIC
Info: PARTICLE MESH EWALD (PME) ACTIVE
Info: PME TOLERANCE               1e-06
Info: PME EWALD COEFFICIENT       0.348832
Info: PME INTERPOLATION ORDER     4
Info: PME GRID DIMENSIONS         32 36 32
Info: PME MAXIMUM GRID SPACING    1
Info: PME CALCULATION WILL BE PERFORMED ON GPU
Info: FULL ELECTROSTATIC EVALUATION FREQUENCY      2
Info: USING VERLET I (r-RESPA) MTS SCHEME.
Info: C1 SPLITTING OF LONG RANGE ELECTROSTATICS
Info: PLACING ATOMS IN PATCHES BY HYDROGEN GROUPS
Info: RIGID BONDS TO HYDROGEN : ALL
Info:         ERROR TOLERANCE : 1e-08
Info:          MAX ITERATIONS : 100
Info: RIGID WATER USING SETTLE ALGORITHM
Info: RANDOM NUMBER SEED     1743997238
Info: USE HYDROGEN BONDS?    NO
Info: Using AMBER format force field!
Info: AMBER PARM FILE        mobley_3525176.prmtop
Info: COORDINATE PDB         mobley_3525176.pdb
Info: Exclusions will be read from PARM file!
Info: SCNB (VDW SCALING)     2
Info: USING ARITHMETIC MEAN TO COMBINE L-J SIGMA PARAMETERS
Info: BINARY COORDINATES     mobley_3525176_equil.coor
Info: SUMMARY OF PARAMETERS:
Info: 7 BONDS
Info: 8 ANGLES
Info:   8 HARMONIC
Info:   0 COSINE-BASED
Info: 9 DIHEDRAL
Info: 0 IMPROPER
Info: 0 CROSSTERM
Info: 0 VDW
Info: 21 VDW_PAIRS
Info: 0 NBTHOLE_PAIRS
Info: To read alchdata from file: mobley_3525176.pdb
Info: To read alchflag data from column: 5
Info: STRUCTURE SUMMARY:
Info: 2970 ATOMS
Info: 2970 BONDS
Info: 48 ANGLES
Info: 76 DIHEDRALS
Info: 0 IMPROPERS
Info: 0 CROSSTERMS
Info: 3081 EXCLUSIONS
Info: 2959 RIGID BONDS
Info: ALCH: 0 ATOMS TO DISAPPEAR IN FINAL STATE
Info: ALCH: 27 ATOMS TO APPEAR IN FINAL STATE
Info: 5951 DEGREES OF FREEDOM
Info: 992 HYDROGEN GROUPS
Info: 4 ATOMS IN LARGEST HYDROGEN GROUP
Info: 992 MIGRATION GROUPS
Info: 4 ATOMS IN LARGEST MIGRATION GROUP
Info: TOTAL MASS = 17821.9 amu
Info: TOTAL CHARGE = 2.6077e-08 e
Info: MASS DENSITY = 0.96724 g/cm^3
Info: ATOM DENSITY = 0.0970681 atoms/A^3
Info: ADDED 0 IMPLICIT EXCLUSIONS
Info: NONBONDED TABLE R-SQUARED SPACING: 0.0625
Info: NONBONDED TABLE SIZE: 705 POINTS
Info: REMOVING COM VELOCITY 0.0615851 -0.0959988 -0.0731594
Info: Use 3D box decompostion in PME FFT.
Info: Updated CUDA force table with 4096 elements.
Info: Updated CUDA LJ table with 6 x 6 elements.
Info: Found 26 unique exclusion lists needing 100 bytes
TCL: Running for 1500000 steps
ETITLE: TS BOND ANGLE DIHED IMPRP ELECT VDW BOUNDARY MISC KINETIC TOTAL TEMP POTENTIAL TOTALAVG TEMPAVG PRESSURE GPRESSURE VOLUME PRESSAVG GPRESSAVG
ENERGY: 0 4.2173 8.9550 4.2430 0.0000 -10799.6975 1490.0673 0.0000 0.0000 1779.2292 -7512.9857 300.9070 -9292.2149 -7512.9857 300.9070 84.0020 172.9079 30597.0765 84.0020 172.9079
ENERGY: 300000 4.8103 11.4868 5.1486 0.0000 -10725.8319 1442.4122 0.0000 0.0000 1818.2842 -7443.6898 307.5121 -9261.9740 -7440.1269 305.7353 -92.3563 -64.6605 30196.7506 -277.8337 -200.7224
ENERGY: 600000 1.5013 18.1240 4.4468 0.0000 -10764.2129 1526.3329 0.0000 0.0000 1773.8361 -7439.9719 299.9949 -9213.8080 -7419.3279 304.7673 594.8803 708.8842 30455.5735 -41.1242 39.3202
ENERGY: 900000 3.2976 8.1739 3.2892 0.0000 -10550.6516 1349.1560 0.0000 0.0000 1814.6371 -7372.0978 306.8953 -9186.7349 -7432.3918 302.8895 -639.4453 -556.9857 30621.1618 -182.6147 -99.2237
ENERGY: 1200000 5.1000 10.2613 7.2303 0.0000 -10709.3135 1448.0576 0.0000 0.0000 1829.4615 -7409.2028 309.4024 -9238.6643 -7458.9564 301.1161 125.8610 206.4074 29985.0506 -122.2125 -44.7447
ENERGY: 1500000 0.9573 9.5362 3.4960 0.0000 -10803.1709 1480.1076 0.0000 0.0000 1809.9184 -7499.1555 306.0972 -9309.0739 -7464.1576 300.7839 173.1559 260.1530 30191.2047 -133.3578 -53.2798
TCL: Running FEP window   2: Lambda1 0.05   Lambda2 0.1    [dLambda 0.05  ]
TCL: Setting parameter firsttimestep to 0
TCL: Setting parameter alchLambda to 0.05
Info: NONBONDED TABLE R-SQUARED SPACING: 0.0625
Info: NONBONDED TABLE SIZE: 705 POINTS
TCL: Setting parameter alchLambda2 to 0.1
Info: NONBONDED TABLE R-SQUARED SPACING: 0.0625
Info: NONBONDED TABLE SIZE: 705 POINTS
TCL: Running for 1500000 steps
ETITLE: TS BOND ANGLE DIHED IMPRP ELECT VDW BOUNDARY MISC KINETIC TOTAL TEMP POTENTIAL TOTALAVG TEMPAVG PRESSURE GPRESSURE VOLUME PRESSAVG GPRESSAVG
ENERGY: 0 0.9573 9.5362 3.4960 0.0000 -10803.1708 1484.3634 0.0000 0.0000 1809.0285 -7495.7894 305.9468 -9304.8179 -7495.7894 305.9468 194.6696 272.4737 30191.2047 194.6696 272.4737
ENERGY: 300000 3.0281 10.2754 4.0138 0.0000 -10734.2689 1420.2913 0.0000 0.0000 1790.9648 -7505.6956 302.8918 -9296.6603 -7482.9345 307.2584 -335.0481 -311.4677 30340.0810 31.9279 109.2605
ENERGY: 600000 2.6706 7.5137 4.4468 0.0000 -10704.7453 1478.0257 0.0000 0.0000 1776.8134 -7435.2750 300.4985 -9212.0884 -7484.0863 304.5076 283.6390 336.9290 30171.5555 -254.5302 -162.7496
ENERGY: 900000 8.3276 10.6985 3.2650 0.0000 -10688.3637 1459.7850 0.0000 0.0000 1802.7751 -7403.5126 304.8892 -9206.2876 -7472.4520 304.8477 -105.7593 -102.2300 30570.0620 -223.4096 -149.9133
ENERGY: 1200000 3.5829 8.5770 4.6092 0.0000 -10683.1001 1449.7203 0.0000 0.0000 1790.8387 -7425.7720 302.8705 -9216.6108 -7475.5836 302.9939 214.3975 241.5623 30289.9621 -115.4214 -46.8870
ENERGY: 1500000 3.4960 17.6372 6.8300 0.0000 -10692.2082 1377.6874 0.0000 0.0000 1777.3100 -7509.2477 300.5824 -9286.5577 -7477.9917 302.8693 -873.6816 -778.1834 30373.8540 -155.4201 -87.1794
TCL: Running FEP window   3: Lambda1 0.1    Lambda2 0.15000000000000002 [dLambda 0.05000000000000002]
TCL: Setting parameter firsttimestep to 0
TCL: Setting parameter alchLambda to 0.1
Info: NONBONDED TABLE R-SQUARED SPACING: 0.0625
Info: NONBONDED TABLE SIZE: 705 POINTS
TCL: Setting parameter alchLambda2 to 0.15000000000000002
Info: NONBONDED TABLE R-SQUARED SPACING: 0.0625
Info: NONBONDED TABLE SIZE: 705 POINTS
TCL: Running for 1500000 steps
ETITLE: TS BOND ANGLE DIHED IMPRP ELECT VDW BOUNDARY MISC KINETIC TOTAL TEMP POTENTIAL TOTALAVG TEMPAVG PRESSURE GPRESSURE VOLUME PRESSAVG GPRESSAVG
ENERGY: 0 3.4960 17.6372 6.8300 0.0000 -10692.2072 1379.9357 0.0000 0.0000 1776.4505 -7507.8577 300.4371 -9284.3082 -7507.8577 300.4371 -855.6400 -766.9215 30373.8540 -855.6400 -766.9215
ENERGY: 300000 2.5624 15.0550 5.5133 0.0000 -10737.7933 1503.6442 0.0000 0.0000 1780.0168 -7431.0017 301.0402 -9211.0185 -7489.9978 299.6451 483.2030 519.1787 30901.6912 190.7863 262.6299
ENERGY: 600000 4.8408 8.5207 3.3115 0.0000 -10597.7391 1355.1314 0.0000 0.0000 1739.9568 -7485.9780 294.2652 -9225.9348 -7479.5915 300.7669 -660.8878 -626.7444 30389.3039 -18.4557 45.3235
ENERGY: 900000 2.0043 9.0926 3.6549 0.0000 -10666.0826 1449.1444 0.0000 0.0000 1799.4892 -7402.6972 304.3334 -9202.1863 -7472.5512 302.0443 436.5999 465.3824 30051.9501 23.0207 74.4319
ENERGY: 1200000 4.4851 13.9833 5.5685 0.0000 -10785.6639 1477.6941 0.0000 0.0000 1821.3322 -7462.6007 308.0276 -9283.9328 -7467.0591 303.3670 37.4085 67.1574 30127.8163 39.4917 91.5777
ENERGY: 1500000 1.3530 12.7079 5.0145 0.0000 -10701.0515 1439.5245 0.0000 0.0000 1814.0675 -7428.3841 306.7989 -9242.4516 -7468.6103 302.9147 -100.8905 -13.7479 30397.8915 3.1410 54.1376
TCL: Running FEP window   4: Lambda1 0.15000000000000002 Lambda2 0.2    [dLambda 0.04999999999999999]
TCL: Setting parameter firsttimestep to 0
TCL: Setting parameter alchLambda to 0.15000000000000002
Info: NONBONDED TABLE R-SQUARED SPACING: 0.0625
Info: NONBONDED TABLE SIZE: 705 POINTS
TCL: Setting parameter alchLambda2 to 0.2
Info: NONBONDED TABLE R-SQUARED SPACING: 0.0625
Info: NONBONDED TABLE SIZE: 705 POINTS
TCL: Running for 1500000 steps
ETITLE: TS BOND ANGLE DIHED IMPRP ELECT VDW BOUNDARY MISC KINETIC TOTAL TEMP POTENTIAL TOTALAVG TEMPAVG PRESSURE GPRESSURE VOLUME PRESSAVG GPRESSAVG
ENERGY: 0 1.3530 12.7079 5.0145 0.0000 -10701.0514 1442.4480 0.0000 0.0000 1813.1737 -7426.3543 306.6478 -9239.5280 -7426.3543 306.6478 -73.0043 4.8757 30397.8915 -73.0043 4.8757
ENERGY: 300000 2.9972 9.4876 5.9990 0.0000 -10746.0211 1479.9303 0.0000 0.0000 1807.2833 -7440.3238 305.6516 -9247.6070 -7451.3798 301.5245 598.2872 615.4482 29983.9297 -2.7320 70.1662
ENERGY: 600000 4.9460 11.1842 2.8946 0.0000 -10629.4075 1397.0241 0.0000 0.0000 1807.8706 -7405.4880 305.7509 -9213.3586 -7461.7452 300.4857 -349.1588 -220.1743 30129.8290 42.5789 113.1957
ENERGY: 900000 3.0094 14.8091 4.5016 0.0000 -10744.8249 1484.0644 0.0000 0.0000 1779.9303 -7458.5101 301.0256 -9238.4404 -7464.2596 300.2948 227.8211 285.5451 30321.6763 3.1081 66.3037
ENERGY: 1200000 2.0454 14.7392 6.6289 0.0000 -10743.8885 1451.2755 0.0000 0.0000 1715.6096 -7553.5899 290.1475 -9269.1995 -7478.2257 299.3962 -97.2276 -109.1192 30462.5556 23.8300 87.5035
ENERGY: 1500000 7.1426 9.2508 2.8750 0.0000 -10695.0294 1426.8566 0.0000 0.0000 1758.3948 -7490.5096 297.3835 -9248.9044 -7491.1366 298.9615 -373.7617 -326.0211 30407.3561 -100.4186 -37.0686
TCL: Running FEP window   5: Lambda1 0.2    Lambda2 0.25   [dLambda 0.04999999999999999]
TCL: Setting parameter firsttimestep to 0
TCL: Setting parameter alchLambda to 0.2
Info: NONBONDED TABLE R-SQUARED SPACING: 0.0625
Info: NONBONDED TABLE SIZE: 705 POINTS
TCL: Setting parameter alchLambda2 to 0.25
Info: NONBONDED TABLE R-SQUARED SPACING: 0.0625
Info: NONBONDED TABLE SIZE: 705 POINTS
TCL: Running for 1500000 steps
ETITLE: TS BOND ANGLE DIHED IMPRP ELECT VDW BOUNDARY MISC KINETIC TOTAL TEMP POTENTIAL TOTALAVG TEMPAVG PRESSURE GPRESSURE VOLUME PRESSAVG GPRESSAVG
ENERGY: 0 7.1426 9.2508 2.8750 0.0000 -10695.0289 1427.5267 0.0000 0.0000 1757.5613 -7490.6725 297.2425 -9248.2338 -7490.6725 297.2425 -402.7688 -319.9077 30407.3561 -402.7688 -319.9077
ENERGY: 300000 4.4947 10.7827 6.3002 0.0000 -10706.9423 1427.7531 0.0000 0.0000 1823.4403 -7434.1712 308.3841 -9257.6116 -7448.7597 301.0717 -248.9883 -215.5780 30303.5973 -163.0497 -81.1344
ENERGY: 600000 3.5669 12.9544 2.5698 0.0000 -10726.3261 1484.6861 0.0000 0.0000 1789.9166 -7432.6322 302.7145 -9222.5488 -7445.9451 301.3926 545.9653 574.1082 30401.5610 16.2198 96.2795
ENERGY: 900000 2.1280 16.1543 5.0853 0.0000 -10676.1256 1435.8249 0.0000 0.0000 1749.3614 -7467.5716 295.8557 -9216.9330 -7455.5783 300.5394 195.7306 258.7944 29965.2209 -34.4125 39.2375
ENERGY: 1200000 2.5848 11.2191 5.1860 0.0000 -10793.9260 1495.8037 0.0000 0.0000 1755.9080 -7523.2245 296.9629 -9279.1325 -7469.2261 300.4104 312.8860 361.1482 30144.9564 -36.3670 38.3683
ENERGY: 1500000 3.5647 16.4764 2.6007 0.0000 -10613.9298 1392.4857 0.0000 0.0000 1741.9325 -7456.8698 294.5993 -9198.8023 -7466.7646 300.2895 -266.6994 -171.3603 30472.7269 -37.9077 35.0274
TCL: Running FEP window   6: Lambda1 0.25   Lambda2 0.3    [dLambda 0.04999999999999999]
TCL: Setting parameter firsttimestep to 0
TCL: Setting parameter alchLambda to 0.25
Info: NONBONDED TABLE R-SQUARED SPACING: 0.0625
Info: NONBONDED TABLE SIZE: 705 POINTS
TCL: Setting parameter alchLambda2 to 0.3
Info: NONBONDED TABLE R-SQUARED SPACING: 0.0625
Info: NONBONDED TABLE SIZE: 705 POINTS
TCL: Running for 1500000 steps
ETITLE: TS BOND ANGLE DIHED IMPRP ELECT VDW BOUNDARY MISC KINETIC TOTAL TEMP POTENTIAL TOTALAVG TEMPAVG PRESSURE GPRESSURE VOLUME PRESSAVG GPRESSAVG
ENERGY: 0 3.5647 16.4764 2.6007 0.0000 -10613.9291 1392.7828 0.0000 0.0000 1741.0399 -7457.4646 294.4484 -9198.5045 -7457.4646 294.4484 -257.5931 -166.2840 30472.7269 -257.5931 -166.2840
ENERGY: 300000 3.1478 8.6046 4.4362 0.0000 -10864.9486 1522.5362 0.0000 0.0000 1766.0578 -7560.1661 298.6794 -9326.2239 -7497.0736 297.5512 255.8343 293.5970 30316.9909 220.3520 291.0613
ENERGY: 600000 5.2265 14.3505 4.0587 0.0000 -10832.1430 1513.4749 0.0000 0.0000 1753.8369 -7541.1955 296.6126 -9295.0324 -7499.1383 298.2854 577.9773 605.3812 29945.1465 123.0051 180.7680
ENERGY: 900000 4.6618 13.8215 2.6816 0.0000 -10833.2836 1548.6582 0.0000 0.0000 1753.9415 -7509.5192 296.6303 -9263.4606 -7474.0937 300.1714 712.1964 858.0790 30163.6163 119.6512 185.3022
ENERGY: 1200000 4.3926 6.5303 4.2307 0.0000 -10709.1500 1387.6312 0.0000 0.0000 1713.8599 -7592.5055 289.8516 -9306.3653 -7486.5093 298.9780 -811.0409 -723.3145 30361.3781 -11.4714 54.4284
ENERGY: 1500000 1.6048 7.1046 4.9172 0.0000 -10543.9589 1270.4695 0.0000 0.0000 1771.9792 -7487.8835 299.6809 -9259.8627 -7482.3429 299.5262 -1345.2432 -1286.3703 30831.6029 -41.1000 18.9173
TCL: Running FEP window   7: Lambda1 0.3    Lambda2 0.35   [dLambda 0.04999999999999999]
TCL: Setting parameter firsttimestep to 0
TCL: Setting parameter alchLambda to 0.3
Info: NONBONDED TABLE R-SQUARED SPACING: 0.0625
Info: NONBONDED TABLE SIZE: 705 POINTS
TCL: Setting parameter alchLambda2 to 0.35
Info: NONBONDED TABLE R-SQUARED SPACING: 0.0625
Info: NONBONDED TABLE SIZE: 705 POINTS
TCL: Running for 1500000 steps
ETITLE: TS BOND ANGLE DIHED IMPRP ELECT VDW BOUNDARY MISC KINETIC TOTAL TEMP POTENTIAL TOTALAVG TEMPAVG PRESSURE GPRESSURE VOLUME PRESSAVG GPRESSAVG
ENERGY: 0 1.6048 7.1046 4.9172 0.0000 -10543.9586 1270.0241 0.0000 0.0000 1771.0866 -7489.2212 299.5299 -9260.3079 -7489.2212 299.5299 -1372.2686 -1285.7392 30831.6029 -1372.2686 -1285.7392
ENERGY: 300000 4.6399 9.4834 5.1726 0.0000 -10722.5762 1421.3415 0.0000 0.0000 1788.4846 -7493.4542 302.4723 -9281.9388 -7471.6690 299.6798 -263.8846 -132.2424 30094.2900 -712.2884 -597.7386
ENERGY: 600000 3.2015 4.3577 2.8436 0.0000 -10630.6017 1368.1344 0.0000 0.0000 1811.0368 -7441.0277 306.2864 -9252.0645 -7470.7869 301.2147 -753.5328 -776.0882 30875.1239 -543.4373 -449.2282
ENERGY: 900000 3.2572 9.8344 3.5110 0.0000 -10651.2341 1365.2520 0.0000 0.0000 1807.8852 -7461.4943 305.7534 -9269.3795 -7475.6117 299.7210 -673.7608 -589.4114 30757.1398 -487.8116 -411.6918
ENERGY: 1200000 2.9807 8.0987 4.3346 0.0000 -10883.0679 1579.0418 0.0000 0.0000 1799.7785 -7488.8336 304.3824 -9288.6121 -7483.6564 299.3290 1196.4313 1264.0263 29980.4863 -263.9552 -189.5077
ENERGY: 1500000 2.0486 7.8963 4.7657 0.0000 -10747.9123 1461.8174 0.0000 0.0000 1773.8217 -7497.5624 299.9925 -9271.3842 -7472.4693 300.0490 -6.3674 86.0319 30237.2538 -245.4775 -179.0872
TCL: Running FEP window   8: Lambda1 0.35   Lambda2 0.39999999999999997 [dLambda 0.04999999999999999]
TCL: Setting parameter firsttimestep to 0
TCL: Setting parameter alchLambda to 0.35
Info: NONBONDED TABLE R-SQUARED SPACING: 0.0625
Info: NONBONDED TABLE SIZE: 705 POINTS
TCL: Setting parameter alchLambda2 to 0.39999999999999997
Info: NONBONDED TABLE R-SQUARED SPACING: 0.0625
Info: NONBONDED TABLE SIZE: 705 POINTS
TCL: Running for 1500000 steps
ETITLE: TS BOND ANGLE DIHED IMPRP ELECT VDW BOUNDARY MISC KINETIC TOTAL TEMP POTENTIAL TOTALAVG TEMPAVG PRESSURE GPRESSURE VOLUME PRESSAVG GPRESSAVG
ENERGY: 0 2.0486 7.8963 4.7657 0.0000 -10747.9122 1461.1138 0.0000 0.0000 1772.9448 -7499.1429 299.8442 -9272.0877 -7499.1429 299.8442 4.0718 88.0167 30237.2538 4.0718 88.0167
ENERGY: 300000 4.3160 7.2086 5.6108 0.0000 -10555.7132 1369.9011 0.0000 0.0000 1780.4111 -7388.2656 301.1069 -9168.6767 -7478.7081 299.9764 -457.0630 -327.2330 30597.0665 -271.4136 -188.3201
ENERGY: 600000 4.4024 12.6010 4.2597 0.0000 -10490.6590 1359.8164 0.0000 0.0000 1802.3758 -7307.2036 304.8216 -9109.5794 -7444.9702 302.0632 -609.9672 -606.7720 30981.8686 -263.7785 -202.7792
ENERGY: 900000 2.8714 11.0712 4.4446 0.0000 -10802.5900 1500.9066 0.0000 0.0000 1753.8230 -7529.4731 296.6103 -9283.2962 -7461.6877 299.7791 265.1059 392.5624 30243.5338 -149.9538 -84.2132
ENERGY: 1200000 2.1870 9.0276 5.6618 0.0000 -10715.9958 1472.7286 0.0000 0.0000 1737.1703 -7489.2205 293.7939 -9226.3908 -7465.9339 299.9599 197.3086 268.3408 30480.1914 -148.4300 -85.7826
ENERGY: 1500000 4.5218 9.2070 6.6191 0.0000 -10767.9126 1501.2540 0.0000 0.0000 1694.4940 -7551.8168 286.5764 -9246.3108 -7468.4702 298.8747 267.7948 353.8610 30363.8569 -109.2830 -47.9478
TCL: Running FEP window   9: Lambda1 0.39999999999999997 Lambda2 0.44999999999999996 [dLambda 0.04999999999999999]
TCL: Setting parameter firsttimestep to 0
TCL: Setting parameter alchLambda to 0.39999999999999997
Info: NONBONDED TABLE R-SQUARED SPACING: 0.0625
Info: NONBONDED TABLE SIZE: 705 POINTS
TCL: Setting parameter alchLambda2 to 0.44999999999999996
Info: NONBONDED TABLE R-SQUARED SPACING: 0.0625
Info: NONBONDED TABLE SIZE: 705 POINTS
TCL: Running for 1500000 steps
ETITLE: TS BOND ANGLE DIHED IMPRP ELECT VDW BOUNDARY MISC KINETIC TOTAL TEMP POTENTIAL TOTALAVG TEMPAVG PRESSURE GPRESSURE VOLUME PRESSAVG GPRESSAVG
ENERGY: 0 4.5218 9.2070 6.6191 0.0000 -10767.9121 1501.3722 0.0000 0.0000 1693.5870 -7552.6051 286.4230 -9246.1921 -7552.6051 286.4230 279.5875 362.1390 30363.8569 279.5875 362.1390
ENERGY: 300000 1.9990 11.6961 4.6566 0.0000 -10633.2098 1389.4574 0.0000 0.0000 1847.7524 -7377.6482 312.4958 -9225.4007 -7499.1324 295.3257 -486.0526 -341.9551 30731.2648 -36.7614 38.1289
ENERGY: 600000 5.2871 13.8806 5.6919 0.0000 -10720.3201 1475.9828 0.0000 0.0000 1833.9740 -7385.5037 310.1656 -9219.4776 -7450.9668 301.4904 433.1616 516.8382 30628.8731 23.2560 93.3362
ENERGY: 900000 4.1095 12.7286 4.7609 0.0000 -10759.7154 1468.1476 0.0000 0.0000 1708.6835 -7561.2853 288.9762 -9269.9688 -7467.5397 300.2899 62.0058 111.4634 30143.2012 50.7419 113.8983
ENERGY: 1200000 3.4972 9.1072 6.7024 0.0000 -10780.0225 1485.8592 0.0000 0.0000 1784.6512 -7490.2053 301.8240 -9274.8565 -7468.1750 300.9234 382.7382 523.7005 30437.9173 150.0629 218.2864
ENERGY: 1500000 1.7892 7.6594 4.5335 0.0000 -10615.4924 1399.3751 0.0000 0.0000 1770.9074 -7431.2277 299.4996 -9202.1351 -7469.8237 299.7594 -304.2363 -313.6812 30852.8808 88.4562 154.3759
TCL: Running FEP window  10: Lambda1 0.44999999999999996 Lambda2 0.49999999999999994 [dLambda 0.04999999999999999]
TCL: Setting parameter firsttimestep to 0
TCL: Setting parameter alchLambda to 0.44999999999999996
Info: NONBONDED TABLE R-SQUARED SPACING: 0.0625
Info: NONBONDED TABLE SIZE: 705 POINTS
TCL: Setting parameter alchLambda2 to 0.49999999999999994
Info: NONBONDED TABLE R-SQUARED SPACING: 0.0625
Info: NONBONDED TABLE SIZE: 705 POINTS
TCL: Running for 1500000 steps
ETITLE: TS BOND ANGLE DIHED IMPRP ELECT VDW BOUNDARY MISC KINETIC TOTAL TEMP POTENTIAL TOTALAVG TEMPAVG PRESSURE GPRESSURE VOLUME PRESSAVG GPRESSAVG
ENERGY: 0 1.7892 7.6594 4.5336 0.0000 -10615.4917 1399.3000 0.0000 0.0000 1770.0207 -7432.1888 299.3497 -9202.2095 -7432.1888 299.3497 -389.4370 -307.8587 30852.8808 -389.4370 -307.8587
ENERGY: 300000 4.5442 16.1532 6.6084 0.0000 -10780.2813 1497.9585 0.0000 0.0000 1784.8903 -7470.1267 301.8644 -9255.0170 -7447.7762 301.2365 379.5531 393.3755 30289.4886 -153.2135 -92.3475
ENERGY: 600000 2.8460 7.8550 7.7564 0.0000 -10867.7114 1547.7109 0.0000 0.0000 1786.0214 -7515.5215 302.0557 -9301.5430 -7457.0827 299.7222 632.4268 689.5908 30526.3423 -41.2475 25.2055
ENERGY: 900000 3.8602 7.1896 4.5341 0.0000 -10536.5102 1330.2860 0.0000 0.0000 1741.2874 -7449.3528 294.4902 -9190.6402 -7486.6655 298.1769 -994.0846 -910.5242 30758.6434 -105.1710 -39.1854
ENERGY: 1200000 2.1682 11.3901 6.0222 0.0000 -10740.5557 1468.2989 0.0000 0.0000 1751.9411 -7500.7352 296.2920 -9252.6764 -7485.7164 298.3743 123.9515 215.6659 30404.0547 -25.4626 46.7682
ENERGY: 1500000 4.9856 12.8601 3.6858 0.0000 -10735.5253 1450.1673 0.0000 0.0000 1762.7566 -7501.0699 298.1212 -9263.8266 -7486.2383 298.5370 141.4818 153.8077 30370.9520 -7.7879 64.2037
TCL: Running FEP window  11: Lambda1 0.49999999999999994 Lambda2 0.5499999999999999 [dLambda 0.04999999999999999]
TCL: Setting parameter firsttimestep to 0
TCL: Setting parameter alchLambda to 0.49999999999999994
Info: NONBONDED TABLE R-SQUARED SPACING: 0.0625
Info: NONBONDED TABLE SIZE: 705 POINTS
TCL: Setting parameter alchLambda2 to 0.5499999999999999
Info: NONBONDED TABLE R-SQUARED SPACING: 0.0625
Info: NONBONDED TABLE SIZE: 705 POINTS
TCL: Running for 1500000 steps
ETITLE: TS BOND ANGLE DIHED IMPRP ELECT VDW BOUNDARY MISC KINETIC TOTAL TEMP POTENTIAL TOTALAVG TEMPAVG PRESSURE GPRESSURE VOLUME PRESSAVG GPRESSAVG
ENERGY: 0 4.9856 12.8601 3.6858 0.0000 -10735.5243 1450.0330 0.0000 0.0000 1761.8611 -7502.0987 297.9697 -9263.9598 -7502.0987 297.9697 59.5101 161.2130 30370.9520 59.5101 161.2130
ENERGY: 300000 6.7629 16.4449 4.6082 0.0000 -10607.5131 1412.9545 0.0000 0.0000 1825.3700 -7341.3726 308.7105 -9166.7426 -7481.3595 300.9745 -204.1917 -162.9347 30583.9452 167.3471 233.9417
ENERGY: 600000 2.1831 7.6356 4.9620 0.0000 -10806.5221 1455.5270 0.0000 0.0000 1835.7052 -7500.5092 310.4584 -9336.2144 -7477.1919 302.7272 -201.8262 -171.5357 30640.3756 209.3731 279.7566
ENERGY: 900000 4.0131 11.9660 7.0006 0.0000 -10759.9334 1460.7674 0.0000 0.0000 1732.9489 -7543.2374 293.0800 -9276.1863 -7487.1622 300.8430 200.6581 164.9894 29984.5987 152.5740 211.1083
ENERGY: 1200000 3.3342 10.7727 4.2456 0.0000 -10707.6721 1423.1245 0.0000 0.0000 1738.1183 -7528.0769 293.9543 -9266.1951 -7480.2995 300.2931 -81.8390 3.7424 30171.4328 123.6144 183.7302
ENERGY: 1500000 2.2479 11.4843 4.3228 0.0000 -10773.7537 1450.2070 0.0000 0.0000 1742.5416 -7562.9500 294.7023 -9305.4916 -7480.0221 300.2391 -291.8844 -145.0870 30605.3390 -32.3275 29.5895
TCL: Running FEP window  12: Lambda1 0.5499999999999999 Lambda2 0.6    [dLambda 0.050000000000000044]
TCL: Setting parameter firsttimestep to 0
TCL: Setting parameter alchLambda to 0.5499999999999999
Info: NONBONDED TABLE R-SQUARED SPACING: 0.0625
Info: NONBONDED TABLE SIZE: 705 POINTS
TCL: Setting parameter alchLambda2 to 0.6
Info: NONBONDED TABLE R-SQUARED SPACING: 0.0625
Info: NONBONDED TABLE SIZE: 705 POINTS
TCL: Running for 1500000 steps
ETITLE: TS BOND ANGLE DIHED IMPRP ELECT VDW BOUNDARY MISC KINETIC TOTAL TEMP POTENTIAL TOTALAVG TEMPAVG PRESSURE GPRESSURE VOLUME PRESSAVG GPRESSAVG
ENERGY: 0 2.2479 11.4843 4.3228 0.0000 -10773.3541 1451.3477 0.0000 0.0000 1741.6963 -7562.2550 294.5594 -9303.9513 -7562.2550 294.5594 -203.3259 -126.2953 30605.3390 -203.3259 -126.2953
ENERGY: 300000 5.1973 11.5346 5.5126 0.0000 -10666.4499 1460.8510 0.0000 0.0000 1782.3227 -7401.0317 301.4302 -9183.3544 -7486.4978 295.1788 78.5440 88.7750 30618.5385 -227.3362 -172.4820
ENERGY: 600000 2.0802 9.0029 5.5967 0.0000 -10519.0603 1345.1686 0.0000 0.0000 1792.6671 -7364.5447 303.1797 -9157.2118 -7447.9756 298.3742 -613.4982 -561.5493 30742.3956 -410.4343 -340.2730
ENERGY: 900000 3.0314 12.2308 5.5506 0.0000 -10803.5824 1491.3881 0.0000 0.0000 1767.1635 -7524.2179 298.8665 -9291.3815 -7470.8919 299.4331 337.0406 393.7708 30195.5738 -253.3989 -186.7715
ENERGY: 1200000 1.7635 16.5051 3.4654 0.0000 -10804.6968 1516.7091 0.0000 0.0000 1787.6997 -7478.5540 302.3396 -9266.2537 -7469.1028 298.6293 659.9081 751.6251 30224.6431 -240.2851 -169.7100
ENERGY: 1500000 1.5432 5.4280 3.8559 0.0000 -10813.7969 1468.8913 0.0000 0.0000 1746.4931 -7587.5854 295.3706 -9334.0785 -7483.1302 297.9123 67.4303 191.6028 30431.3257 -270.8295 -202.5335
TCL: Running FEP window  13: Lambda1 0.6    Lambda2 0.65   [dLambda 0.050000000000000044]
TCL: Setting parameter firsttimestep to 0
TCL: Setting parameter alchLambda to 0.6
Info: NONBONDED TABLE R-SQUARED SPACING: 0.0625
Info: NONBONDED TABLE SIZE: 705 POINTS
TCL: Setting parameter alchLambda2 to 0.65
Info: NONBONDED TABLE R-SQUARED SPACING: 0.0625
Info: NONBONDED TABLE SIZE: 705 POINTS
TCL: Running for 1500000 steps
ETITLE: TS BOND ANGLE DIHED IMPRP ELECT VDW BOUNDARY MISC KINETIC TOTAL TEMP POTENTIAL TOTALAVG TEMPAVG PRESSURE GPRESSURE VOLUME PRESSAVG GPRESSAVG
ENERGY: 0 1.5432 5.4280 3.8559 0.0000 -10814.0649 1468.6258 0.0000 0.0000 1745.6090 -7589.0030 295.2211 -9334.6119 -7589.0030 295.2211 116.9067 196.5556 30431.3257 116.9067 196.5556
ENERGY: 300000 2.9927 10.1967 3.7567 0.0000 -10666.0742 1468.5812 0.0000 0.0000 1755.2996 -7425.2475 296.8600 -9180.5470 -7463.4084 300.4236 565.8204 531.9370 30454.4829 129.5302 174.2057
ENERGY: 600000 4.3336 13.0864 5.8152 0.0000 -10622.3620 1396.2915 0.0000 0.0000 1780.4910 -7422.3443 301.1204 -9202.8352 -7450.5454 299.5974 -418.9166 -378.1169 30691.3755 102.9243 137.8376
ENERGY: 900000 6.8706 17.0078 3.5454 0.0000 -10662.8951 1467.8805 0.0000 0.0000 1814.5565 -7353.0343 306.8817 -9167.5908 -7449.6913 299.2186 278.5816 360.3593 30809.8704 137.5088 188.4307
ENERGY: 1200000 3.4401 9.5354 6.9154 0.0000 -10821.8762 1547.0630 0.0000 0.0000 1758.2494 -7496.6728 297.3589 -9254.9222 -7460.6526 299.3142 400.6743 500.2749 31084.0526 164.6893 219.6907
ENERGY: 1500000 3.4053 12.7135 5.0551 0.0000 -10536.5177 1361.2344 0.0000 0.0000 1775.5240 -7378.5853 300.2804 -9154.1094 -7458.0104 299.4434 -710.2579 -687.9678 31130.2820 111.3434 163.0750
TCL: Running FEP window  14: Lambda1 0.65   Lambda2 0.7000000000000001 [dLambda 0.050000000000000044]
TCL: Setting parameter firsttimestep to 0
TCL: Setting parameter alchLambda to 0.65
Info: NONBONDED TABLE R-SQUARED SPACING: 0.0625
Info: NONBONDED TABLE SIZE: 705 POINTS
TCL: Setting parameter alchLambda2 to 0.7000000000000001
Info: NONBONDED TABLE R-SQUARED SPACING: 0.0625
Info: NONBONDED TABLE SIZE: 705 POINTS
TCL: Running for 1500000 steps
ETITLE: TS BOND ANGLE DIHED IMPRP ELECT VDW BOUNDARY MISC KINETIC TOTAL TEMP POTENTIAL TOTALAVG TEMPAVG PRESSURE GPRESSURE VOLUME PRESSAVG GPRESSAVG
ENERGY: 0 3.4053 12.7135 5.0551 0.0000 -10536.5122 1361.1360 0.0000 0.0000 1774.6893 -7379.5129 300.1392 -9154.2022 -7379.5129 300.1392 -766.2879 -676.1772 31130.2820 -766.2879 -676.1772
ENERGY: 300000 2.8037 8.1142 5.5049 0.0000 -10686.8396 1417.7597 0.0000 0.0000 1798.4103 -7454.2466 304.1510 -9252.6570 -7446.3217 299.8129 -104.4363 -36.3235 30337.9505 -308.5781 -224.1659
ENERGY: 600000 4.2684 9.8999 4.3237 0.0000 -10885.3668 1536.4927 0.0000 0.0000 1804.1168 -7526.2653 305.1161 -9330.3821 -7465.3439 300.7830 704.5577 730.6220 30524.0270 -143.9478 -70.4788
ENERGY: 900000 2.8548 11.2665 5.0218 0.0000 -10719.0564 1489.0889 0.0000 0.0000 1796.3749 -7414.4495 303.8067 -9210.8244 -7454.9001 301.1393 561.9654 681.8988 30590.7722 -197.2785 -125.0479
ENERGY: 1200000 4.1523 12.3625 5.3522 0.0000 -10716.2852 1429.9489 0.0000 0.0000 1752.1868 -7512.2825 296.3336 -9264.4693 -7479.0899 300.3248 -246.1547 -170.5730 30463.1270 -199.7370 -129.7241
ENERGY: 1500000 3.9639 14.8380 3.9196 0.0000 -10837.0027 1508.8126 0.0000 0.0000 1810.0050 -7495.4636 306.1119 -9305.4686 -7482.6807 300.9033 121.5053 183.4374 30717.3482 -194.8950 -128.4648
TCL: Running FEP window  15: Lambda1 0.7000000000000001 Lambda2 0.7500000000000001 [dLambda 0.050000000000000044]
TCL: Setting parameter firsttimestep to 0
TCL: Setting parameter alchLambda to 0.7000000000000001
Info: NONBONDED TABLE R-SQUARED SPACING: 0.0625
Info: NONBONDED TABLE SIZE: 705 POINTS
TCL: Setting parameter alchLambda2 to 0.7500000000000001
Info: NONBONDED TABLE R-SQUARED SPACING: 0.0625
Info: NONBONDED TABLE SIZE: 705 POINTS
TCL: Running for 1500000 steps
ETITLE: TS BOND ANGLE DIHED IMPRP ELECT VDW BOUNDARY MISC KINETIC TOTAL TEMP POTENTIAL TOTALAVG TEMPAVG PRESSURE GPRESSURE VOLUME PRESSAVG GPRESSAVG
ENERGY: 0 3.9640 14.8380 3.9196 0.0000 -10837.1527 1508.4890 0.0000 0.0000 1809.1462 -7496.7960 305.9667 -9305.9422 -7496.7960 305.9667 113.9998 191.9623 30717.3482 113.9998 191.9623
ENERGY: 300000 6.4324 9.2884 6.4041 0.0000 -10651.3636 1424.1735 0.0000 0.0000 1749.8824 -7455.1828 295.9438 -9205.0652 -7497.6093 297.5247 -237.2040 -212.0574 30784.7744 -125.1423 -67.0051
ENERGY: 600000 4.0306 12.5847 3.8889 0.0000 -10554.6023 1342.9689 0.0000 0.0000 1773.8713 -7417.2579 300.0009 -9191.1292 -7469.1232 298.6720 -538.6060 -513.8803 30528.2707 -239.7074 -192.4969
ENERGY: 900000 1.4381 13.1609 6.1274 0.0000 -10809.0219 1475.4168 0.0000 0.0000 1787.7610 -7525.1177 302.3499 -9312.8787 -7472.2843 299.7833 71.4861 149.4853 30545.2018 -151.6012 -98.1708
ENERGY: 1200000 2.1728 11.4554 3.7619 0.0000 -10651.7353 1460.7583 0.0000 0.0000 1776.9106 -7396.6764 300.5149 -9173.5870 -7467.0386 300.3286 133.3433 240.0371 30787.4392 -101.7465 -40.2961
ENERGY: 1500000 2.6979 11.7849 5.2643 0.0000 -10760.4912 1461.6765 0.0000 0.0000 1790.0318 -7489.0357 302.7340 -9279.0675 -7467.4485 301.5308 422.9183 432.7258 30297.0149 3.1545 62.0669
TCL: Running FEP window  16: Lambda1 0.7500000000000001 Lambda2 0.8000000000000002 [dLambda 0.050000000000000044]
TCL: Setting parameter firsttimestep to 0
TCL: Setting parameter alchLambda to 0.7500000000000001
Info: NONBONDED TABLE R-SQUARED SPACING: 0.0625
Info: NONBONDED TABLE SIZE: 705 POINTS
TCL: Setting parameter alchLambda2 to 0.8000000000000002
Info: NONBONDED TABLE R-SQUARED SPACING: 0.0625
Info: NONBONDED TABLE SIZE: 705 POINTS
TCL: Running for 1500000 steps
ETITLE: TS BOND ANGLE DIHED IMPRP ELECT VDW BOUNDARY MISC KINETIC TOTAL TEMP POTENTIAL TOTALAVG TEMPAVG PRESSURE GPRESSURE VOLUME PRESSAVG GPRESSAVG
ENERGY: 0 2.6979 11.7849 5.2643 0.0000 -10760.5330 1461.6488 0.0000 0.0000 1789.1729 -7489.9642 302.5887 -9279.1371 -7489.9642 302.5887 362.0177 448.2069 30297.0149 362.0177 448.2069
ENERGY: 300000 1.6086 17.0186 4.1534 0.0000 -10685.4822 1445.7741 0.0000 0.0000 1772.0695 -7444.8580 299.6962 -9216.9275 -7454.2422 300.3828 211.3359 309.7192 30281.8347 214.9601 293.3500
ENERGY: 600000 3.0021 12.5961 4.3369 0.0000 -10731.9961 1436.4206 0.0000 0.0000 1828.8713 -7446.7690 309.3026 -9275.6403 -7469.2690 300.5199 -58.4994 42.2429 30206.9764 276.8298 346.7681
ENERGY: 900000 2.1277 5.7145 3.1347 0.0000 -10876.0080 1502.2240 0.0000 0.0000 1855.9911 -7506.8160 313.8892 -9362.8071 -7471.6855 302.4318 432.8644 533.6147 30132.5547 285.0278 344.1822
ENERGY: 1200000 4.1704 8.9253 4.4084 0.0000 -10569.3823 1395.4205 0.0000 0.0000 1768.9477 -7387.5100 299.1682 -9156.4577 -7464.2934 302.0760 -147.5593 -75.9217 30834.0492 266.1397 321.3544
ENERGY: 1500000 2.6730 9.2142 4.0044 0.0000 -10747.3966 1432.2763 0.0000 0.0000 1766.6746 -7532.5541 298.7838 -9299.2287 -7466.2686 302.1540 -40.6671 -46.5702 30611.7889 162.6555 221.5399
TCL: Running FEP window  17: Lambda1 0.8000000000000002 Lambda2 0.8500000000000002 [dLambda 0.050000000000000044]
TCL: Setting parameter firsttimestep to 0
TCL: Setting parameter alchLambda to 0.8000000000000002
Info: NONBONDED TABLE R-SQUARED SPACING: 0.0625
Info: NONBONDED TABLE SIZE: 705 POINTS
TCL: Setting parameter alchLambda2 to 0.8500000000000002
Info: NONBONDED TABLE R-SQUARED SPACING: 0.0625
Info: NONBONDED TABLE SIZE: 705 POINTS
TCL: Running for 1500000 steps
ETITLE: TS BOND ANGLE DIHED IMPRP ELECT VDW BOUNDARY MISC KINETIC TOTAL TEMP POTENTIAL TOTALAVG TEMPAVG PRESSURE GPRESSURE VOLUME PRESSAVG GPRESSAVG
ENERGY: 0 2.6730 9.2142 4.0044 0.0000 -10747.7999 1431.5063 0.0000 0.0000 1765.8014 -7534.6006 298.6361 -9300.4020 -7534.6006 298.6361 -131.2075 -42.8246 30611.7889 -131.2075 -42.8246
ENERGY: 300000 1.7169 5.7206 3.4816 0.0000 -10790.9381 1494.2060 0.0000 0.0000 1805.0476 -7480.7655 305.2735 -9285.8130 -7458.1354 300.3025 416.6042 447.6797 30534.1913 44.6075 112.0507
ENERGY: 600000 2.0449 12.1161 8.3837 0.0000 -10738.4062 1471.7734 0.0000 0.0000 1772.7713 -7471.3168 299.8149 -9244.0880 -7464.9730 298.5035 98.9526 195.1625 30619.2752 -97.0435 -19.0790
ENERGY: 900000 6.8173 8.6471 3.6707 0.0000 -10855.3847 1494.5758 0.0000 0.0000 1751.1943 -7590.4795 296.1657 -9341.6738 -7491.8770 297.8100 -31.7802 66.6620 30577.2028 6.6558 73.3691
ENERGY: 1200000 2.0058 12.4944 3.1246 0.0000 -10782.0491 1409.6091 0.0000 0.0000 1821.0810 -7533.7342 307.9851 -9354.8153 -7486.8137 299.4119 -489.6663 -383.2911 30564.6366 -43.6609 22.7174
ENERGY: 1500000 3.2973 11.5683 4.7830 0.0000 -10793.5180 1367.4085 0.0000 0.0000 1764.7682 -7641.6926 298.4614 -9406.4609 -7495.6462 299.7617 -870.0025 -832.5835 30124.8245 -136.5375 -75.1937
TCL: Running FEP window  18: Lambda1 0.8500000000000002 Lambda2 0.9000000000000002 [dLambda 0.050000000000000044]
TCL: Setting parameter firsttimestep to 0
TCL: Setting parameter alchLambda to 0.8500000000000002
Info: NONBONDED TABLE R-SQUARED SPACING: 0.0625
Info: NONBONDED TABLE SIZE: 705 POINTS
TCL: Setting parameter alchLambda2 to 0.9000000000000002
Info: NONBONDED TABLE R-SQUARED SPACING: 0.0625
Info: NONBONDED TABLE SIZE: 705 POINTS
TCL: Running for 1500000 steps
ETITLE: TS BOND ANGLE DIHED IMPRP ELECT VDW BOUNDARY MISC KINETIC TOTAL TEMP POTENTIAL TOTALAVG TEMPAVG PRESSURE GPRESSURE VOLUME PRESSAVG GPRESSAVG
ENERGY: 0 3.2973 11.5683 4.7830 0.0000 -10794.0300 1367.3329 0.0000 0.0000 1763.9155 -7643.1330 298.3171 -9407.0485 -7643.1330 298.3171 -891.7611 -816.1864 30124.8245 -891.7611 -816.1864
ENERGY: 300000 4.1161 11.3031 6.8356 0.0000 -10798.5796 1497.9876 0.0000 0.0000 1786.9366 -7491.4006 302.2105 -9278.3373 -7499.8912 300.8749 501.5219 508.0315 30457.8244 169.6842 198.8631
ENERGY: 600000 6.0489 10.2487 7.0447 0.0000 -10623.5598 1435.3926 0.0000 0.0000 1824.2735 -7340.5514 308.5250 -9164.8249 -7461.0401 301.9123 171.8811 231.2199 30847.6021 100.4985 140.2568
ENERGY: 900000 3.7723 10.8870 5.5413 0.0000 -10873.8599 1523.2805 0.0000 0.0000 1818.9504 -7511.4284 307.6248 -9330.3788 -7471.1282 301.4978 682.5276 751.9898 30068.2652 143.7503 186.1860
ENERGY: 1200000 5.1491 8.6827 5.2636 0.0000 -10799.8831 1450.1259 0.0000 0.0000 1765.2922 -7565.3695 298.5500 -9330.6617 -7478.0756 301.4537 -182.5378 -130.9641 30240.3372 112.6961 153.9979
ENERGY: 1500000 1.7061 18.6966 3.6718 0.0000 -10738.4935 1503.8362 0.0000 0.0000 1749.7272 -7460.8556 295.9176 -9210.5829 -7477.4154 300.7974 426.0870 526.3724 30793.5570 173.5470 216.7442
TCL: Running FEP window  19: Lambda1 0.9000000000000002 Lambda2 0.9500000000000003 [dLambda 0.050000000000000044]
TCL: Setting parameter firsttimestep to 0
TCL: Setting parameter alchLambda to 0.9000000000000002
Info: NONBONDED TABLE R-SQUARED SPACING: 0.0625
Info: NONBONDED TABLE SIZE: 705 POINTS
TCL: Setting parameter alchLambda2 to 0.9500000000000003
Info: NONBONDED TABLE R-SQUARED SPACING: 0.0625
Info: NONBONDED TABLE SIZE: 705 POINTS
TCL: Running for 1500000 steps
ETITLE: TS BOND ANGLE DIHED IMPRP ELECT VDW BOUNDARY MISC KINETIC TOTAL TEMP POTENTIAL TOTALAVG TEMPAVG PRESSURE GPRESSURE VOLUME PRESSAVG GPRESSAVG
ENERGY: 0 1.7061 18.6966 3.6718 0.0000 -10738.8687 1503.4387 0.0000 0.0000 1748.8366 -7462.5189 295.7670 -9211.3555 -7462.5189 295.7670 446.0074 534.4690 30793.5570 446.0074 534.4690
ENERGY: 300000 2.7317 14.1504 8.8604 0.0000 -10764.4868 1431.0212 0.0000 0.0000 1737.7555 -7569.9676 293.8929 -9307.7231 -7490.8100 298.4924 -225.7035 -192.6261 30597.4764 -40.1307 34.4734
ENERGY: 600000 3.8095 7.9657 4.2495 0.0000 -10656.4566 1415.9526 0.0000 0.0000 1732.8332 -7491.6462 293.0604 -9224.4794 -7484.6043 299.9915 -278.2504 -213.4558 30942.7923 -65.8125 14.5859
ENERGY: 900000 4.6944 11.4250 6.1640 0.0000 -10723.7678 1485.5466 0.0000 0.0000 1762.4625 -7453.4753 298.0714 -9215.9379 -7476.9794 299.4020 739.0569 867.8828 30547.0906 62.7138 145.8982
ENERGY: 1200000 1.9327 12.2512 3.5580 0.0000 -10664.8513 1393.6458 0.0000 0.0000 1803.3141 -7450.1495 304.9803 -9253.4636 -7475.6895 299.8800 -145.6975 -54.2978 30192.3566 43.9689 127.2433
ENERGY: 1500000 2.7102 7.1938 3.7310 0.0000 -10709.9492 1444.6941 0.0000 0.0000 1838.3849 -7413.2352 310.9116 -9251.6201 -7473.0900 300.8754 154.0377 211.1879 30505.3092 107.8298 182.4733
TCL: Running FEP window  20: Lambda1 0.9500000000000003 Lambda2 1.0    [dLambda 0.04999999999999971]
TCL: Setting parameter firsttimestep to 0
TCL: Setting parameter alchLambda to 0.9500000000000003
Info: NONBONDED TABLE R-SQUARED SPACING: 0.0625
Info: NONBONDED TABLE SIZE: 705 POINTS
TCL: Setting parameter alchLambda2 to 1.0
Info: NONBONDED TABLE R-SQUARED SPACING: 0.0625
Info: NONBONDED TABLE SIZE: 705 POINTS
TCL: Running for 1500000 steps
ETITLE: TS BOND ANGLE DIHED IMPRP ELECT VDW BOUNDARY MISC KINETIC TOTAL TEMP POTENTIAL TOTALAVG TEMPAVG PRESSURE GPRESSURE VOLUME PRESSAVG GPRESSAVG
ENERGY: 0 2.7102 7.1938 3.7310 0.0000 -10710.4606 1444.9968 0.0000 0.0000 1837.5170 -7414.3117 310.7648 -9251.8287 -7414.3117 310.7648 149.9933 233.7047 30505.3092 149.9933 233.7047
ENERGY: 300000 4.2133 10.8862 6.7093 0.0000 -10843.9870 1511.5016 0.0000 0.0000 1767.8093 -7542.8673 298.9757 -9310.6766 -7454.0002 305.7887 410.4692 524.6807 30267.7669 271.9597 335.0420
ENERGY: 600000 5.0001 14.2067 4.5067 0.0000 -10695.9368 1384.2911 0.0000 0.0000 1788.3206 -7499.6115 302.4446 -9287.9322 -7475.5609 303.2725 -577.7185 -546.6214 30802.5930 285.0761 337.1782
ENERGY: 900000 4.0596 13.3380 4.8084 0.0000 -10610.8203 1375.2960 0.0000 0.0000 1774.4361 -7438.8823 300.0964 -9213.3184 -7465.1297 302.6626 -448.4540 -385.1843 30522.6947 20.4409 71.4091
ENERGY: 1200000 4.8883 10.6441 5.8935 0.0000 -10758.8267 1419.0073 0.0000 0.0000 1793.3736 -7525.0199 303.2992 -9318.3935 -7472.0754 302.3231 -362.3651 -407.1261 30490.8019 43.1124 82.5771
ENERGY: 1500000 4.1106 12.5372 5.2381 0.0000 -10731.6141 1443.8197 0.0000 0.0000 1844.4440 -7421.4644 311.9363 -9265.9084 -7466.6949 302.7003 -77.7302 -82.5366 30808.0112 -40.3318 -1.1502
TCL: Exiting due to exit command.
