Info: SIMULATION PARAMETERS:
Info: TIMESTEP               2
Info: NUMBER OF STEPS        0
Info: STEPS PER CYCLE        10
Info: PERIODIC CELL BASIS 1  31.8078 0 0
Info: PERIODIC CELL BASIS 2  0 29.0311 0
Info: PERIODIC CELL BASIS 3  0 0 33.0852
Info: PERIODIC CELL CENTER   0 0 0
Info: WRAPPING WATERS AROUND PERIODIC BOUNDARIES ON OUTPUT.
Info: WRAPPING ALL CLUSTERS AROUND PERIODIC BOUNDARIES ON OUTPUT.
Info: FIRST LDB TIMESTEP     50
Info: LAST LDB TIMESTEP     -1
Info: HOM BACKGROUND SCALING 1
Info: PME BACKGROUND SCALING 1
Info: MIN ATOMS PER PATCH    40
Info: EMPTY PATCH LOAD       40 ATOMS
Info: VELOCITY FILE          mobley_3572203_equil.vel
Info: CENTER OF MASS MOVING INITIALLY? NO
Info: DIELECTRIC             1
Info: EXCLUDE                SCALED ONE-FOUR
Info: 1-4 ELECTROSTATICS SCALED BY 0.833333
Info: MODIFIED 1-4 VDW PARAMETERS WILL BE USED
Info: DCD FILENAME           mobley_3572203_prod.dcd
Info: DCD FREQUENCY          100000
Info: DCD FIRST STEP         100000
Info: DCD FILE WILL CONTAIN UNIT CELL DATA
Info: XST FILENAME           mobley_3572203_prod.xst
Info: XST FREQUENCY          100000
Info: NO VELOCITY DCD OUTPUT
Info: NO FORCE DCD OUTPUT
Info: OUTPUT FILENAME        mobley_3572203_prod
Info: BINARY OUTPUT FILES WILL BE USED
Info: RESTART FILENAME       mobley_3572203_prod.restart
Info: RESTART FREQUENCY      100000
Info: BINARY RESTART FILES WILL BE USED
Info: CUTOFF                 9
Info: PAIRLIST DISTANCE      11
Info: PAIRLIST SHRINK RATE   0.01
Info: PAIRLIST GROW RATE     0.01
Info: PAIRLIST TRIGGER       0.3
Info: PAIRLISTS PER CYCLE    2
Info: PAIRLISTS ENABLED
Info: MARGIN                 2
Info: HYDROGEN GROUP CUTOFF  2.5
Info: PATCH DIMENSION        15.5
Info: ENERGY OUTPUT STEPS    100000
Info: ENERGY EVALUATION STEPS    100000
Info: OUTPUT ENERGY PRECISION 4
Info: CROSSTERM ENERGY INCLUDED IN DIHEDRAL
Info: TIMING OUTPUT STEPS    1000000
Info: PRESSURE OUTPUT STEPS  100000
Info: ALCHEMICAL FEP ON
Info: FEP CURRENT LAMBDA VALUE     1
Info: FEP COMPARISON LAMBDA VALUE  0.95
Info: FEP INTRA-ALCHEMICAL NON-BONDED INTERACTIONS WILL BE RETAINED
Info: FEP INTRA-ALCHEMICAL BONDED INTERACTIONS WILL BE RETAINED
Info: FEP VDW SHIFTING COEFFICIENT 5
Info: FEP ELEC. ACTIVE FOR ANNIHILATED PARTICLES BETWEEN LAMBDA = 0 AND LAMBDA = 0.5
Info: FEP ELEC. ACTIVE FOR EXNIHILATED PARTICLES BETWEEN LAMBDA = 0.5 AND LAMBDA = 1
Info: FEP VDW ACTIVE FOR ANNIHILATED PARTICLES BETWEEN LAMBDA = 0 AND LAMBDA = 1
Info: FEP VDW ACTIVE FOR EXNIHILATED PARTICLES BETWEEN LAMBDA = 0 AND LAMBDA = 1
Info: FEP BOND ACTIVE FOR ANNIHILATED PARTICLES BETWEEN LAMBDA = 1 AND LAMBDA = 1
Info: FEP BOND ACTIVE FOR EXNIHILATED PARTICLES BETWEEN LAMBDA = 0 AND LAMBDA = 0
Info: LANGEVIN DYNAMICS ACTIVE
Info: LANGEVIN TEMPERATURE   300
Info: LANGEVIN USING BBK INTEGRATOR
Info: LANGEVIN DAMPING COEFFICIENT IS 1 INVERSE PS
Info: LANGEVIN DYNAMICS APPLIED TO HYDROGENS
Info: LANGEVIN PISTON PRESSURE CONTROL ACTIVE
Info:        TARGET PRESSURE IS 1.01325 BAR
Info:     OSCILLATION PERIOD IS 50 FS
Info:             DECAY TIME IS 25 FS
Info:     PISTON TEMPERATURE IS 300 K
Info:       PRESSURE CONTROL IS GROUP-BASED
Info:    INITIAL STRAIN RATE IS 0.000259714 0.000259714 0.000259714
Info:       CELL FLUCTUATION IS ISOTROPIC
Info: PARTICLE MESH EWALD (PME) ACTIVE
Info: PME TOLERANCE               1e-06
Info: PME EWALD COEFFICIENT       0.348832
Info: PME INTERPOLATION ORDER     4
Info: PME GRID DIMENSIONS         32 32 36
Info: PME MAXIMUM GRID SPACING    1
Info: PME CALCULATION WILL BE PERFORMED ON GPU
Info: FULL ELECTROSTATIC EVALUATION FREQUENCY      2
Info: USING VERLET I (r-RESPA) MTS SCHEME.
Info: C1 SPLITTING OF LONG RANGE ELECTROSTATICS
Info: PLACING ATOMS IN PATCHES BY HYDROGEN GROUPS
Info: RIGID BONDS TO HYDROGEN : ALL
Info:         ERROR TOLERANCE : 1e-08
Info:          MAX ITERATIONS : 100
Info: RIGID WATER USING SETTLE ALGORITHM
Info: RANDOM NUMBER SEED     1744035675
Info: USE HYDROGEN BONDS?    NO
Info: Using AMBER format force field!
Info: AMBER PARM FILE        mobley_3572203.prmtop
Info: COORDINATE PDB         mobley_3572203.pdb
Info: Exclusions will be read from PARM file!
Info: SCNB (VDW SCALING)     2
Info: USING ARITHMETIC MEAN TO COMBINE L-J SIGMA PARAMETERS
Info: BINARY COORDINATES     mobley_3572203_equil.coor
Info: SUMMARY OF PARAMETERS:
Info: 9 BONDS
Info: 13 ANGLES
Info:   13 HARMONIC
Info:   0 COSINE-BASED
Info: 20 DIHEDRAL
Info: 0 IMPROPER
Info: 0 CROSSTERM
Info: 0 VDW
Info: 36 VDW_PAIRS
Info: 0 NBTHOLE_PAIRS
Info: To read alchdata from file: mobley_3572203.pdb
Info: To read alchflag data from column: 5
Info: STRUCTURE SUMMARY:
Info: 2960 ATOMS
Info: 2959 BONDS
Info: 46 ANGLES
Info: 71 DIHEDRALS
Info: 0 IMPROPERS
Info: 0 CROSSTERMS
Info: 3061 EXCLUSIONS
Info: 2950 RIGID BONDS
Info: ALCH: 0 ATOMS TO DISAPPEAR IN FINAL STATE
Info: ALCH: 26 ATOMS TO APPEAR IN FINAL STATE
Info: 5930 DEGREES OF FREEDOM
Info: 988 HYDROGEN GROUPS
Info: 4 ATOMS IN LARGEST HYDROGEN GROUP
Info: 988 MIGRATION GROUPS
Info: 4 ATOMS IN LARGEST MIGRATION GROUP
Info: TOTAL MASS = 17763.9 amu
Info: TOTAL CHARGE = -9.99831e-05 e
Info: MASS DENSITY = 0.965529 g/cm^3
Info: ATOM DENSITY = 0.0968859 atoms/A^3
Info: ADDED 0 IMPLICIT EXCLUSIONS
Info: NONBONDED TABLE R-SQUARED SPACING: 0.0625
Info: NONBONDED TABLE SIZE: 705 POINTS
Info: REMOVING COM VELOCITY 0.172921 0.131011 -0.147725
Info: Use 3D box decompostion in PME FFT.
Info: Updated CUDA force table with 4096 elements.
Info: Updated CUDA LJ table with 8 x 8 elements.
Info: Found 29 unique exclusion lists needing 100 bytes
TCL: Running for 1500000 steps
ETITLE: TS BOND ANGLE DIHED IMPRP ELECT VDW BOUNDARY MISC KINETIC TOTAL TEMP POTENTIAL TOTALAVG TEMPAVG PRESSURE GPRESSURE VOLUME PRESSAVG GPRESSAVG
ENERGY: 0 2.7346 17.2325 4.8444 0.0000 -10697.8520 1436.0373 0.0000 0.0000 1828.3766 -7408.6266 310.3140 -9237.0032 -7408.6266 310.3140 57.3323 131.4330 30551.3893 57.3323 131.4330
ENERGY: 300000 4.1286 10.2437 5.5063 0.0000 -10796.8177 1497.5474 0.0000 0.0000 1784.6991 -7494.6926 302.9010 -9279.3918 -7481.1876 302.2963 545.9405 566.1873 30283.7124 135.0422 188.7575
ENERGY: 600000 2.4886 14.3539 5.6741 0.0000 -10606.9410 1388.7336 0.0000 0.0000 1730.1672 -7465.5235 293.6458 -9195.6907 -7473.7563 300.8074 -74.8753 -27.6571 30269.0225 118.5106 168.5431
ENERGY: 900000 4.6440 10.5091 6.3097 0.0000 -10639.3341 1430.4119 0.0000 0.0000 1811.4296 -7376.0298 307.4377 -9187.4594 -7472.3444 300.9938 241.7781 263.8006 30281.4482 77.2903 127.7490
ENERGY: 1200000 4.2407 12.2067 6.8621 0.0000 -10680.8798 1417.1195 0.0000 0.0000 1778.2146 -7462.2362 301.8004 -9240.4508 -7457.3551 302.0584 -253.7727 -104.4110 30389.1024 31.4310 92.7403
ENERGY: 1500000 5.9865 9.9247 5.6667 0.0000 -10671.6816 1365.8913 0.0000 0.0000 1739.3093 -7544.9030 295.1974 -9284.2123 -7463.1082 301.3701 -355.6684 -379.6447 30402.5833 39.5084 98.4562
TCL: Running FEP window   2: Lambda1 0.95   Lambda2 0.8999999999999999 [dLambda -0.050000000000000044]
TCL: Setting parameter firsttimestep to 0
TCL: Setting parameter alchLambda to 0.95
Info: NONBONDED TABLE R-SQUARED SPACING: 0.0625
Info: NONBONDED TABLE SIZE: 705 POINTS
TCL: Setting parameter alchLambda2 to 0.8999999999999999
Info: NONBONDED TABLE R-SQUARED SPACING: 0.0625
Info: NONBONDED TABLE SIZE: 705 POINTS
TCL: Running for 1500000 steps
ETITLE: TS BOND ANGLE DIHED IMPRP ELECT VDW BOUNDARY MISC KINETIC TOTAL TEMP POTENTIAL TOTALAVG TEMPAVG PRESSURE GPRESSURE VOLUME PRESSAVG GPRESSAVG
ENERGY: 0 5.9865 9.9247 5.6667 0.0000 -10670.3832 1366.0314 0.0000 0.0000 1738.4151 -7544.3588 295.0456 -9282.7739 -7544.3588 295.0456 -475.3033 -391.0354 30402.5833 -475.3033 -391.0354
ENERGY: 300000 3.4481 12.4118 5.4021 0.0000 -10748.8184 1411.2314 0.0000 0.0000 1794.1591 -7522.1660 304.5065 -9316.3251 -7518.6727 297.2265 12.7736 15.6444 29773.5862 -140.3364 -71.6351
ENERGY: 600000 4.1892 12.0160 7.9480 0.0000 -10787.9115 1481.1350 0.0000 0.0000 1752.9500 -7529.6734 297.5125 -9282.6234 -7509.0487 297.1414 182.4628 242.8236 30483.9707 57.5513 117.6552
ENERGY: 900000 4.2786 10.4426 5.9441 0.0000 -10826.9053 1539.9861 0.0000 0.0000 1798.0554 -7468.1984 305.1678 -9266.2538 -7495.3429 297.7133 641.5219 718.7441 30636.0787 83.7561 145.3231
ENERGY: 1200000 2.9461 15.0574 7.9530 0.0000 -10511.8222 1343.5753 0.0000 0.0000 1807.0718 -7335.2187 306.6981 -9142.2905 -7459.1302 299.4584 -253.9172 -237.7480 30676.1824 51.2775 111.0179
ENERGY: 1500000 4.3826 13.5431 5.8880 0.0000 -10716.5344 1412.8427 0.0000 0.0000 1765.6664 -7514.2116 299.6707 -9279.8780 -7456.7211 299.7380 -323.1707 -252.3059 30762.8132 -15.3653 47.8142
TCL: Running FEP window   3: Lambda1 0.8999999999999999 Lambda2 0.8499999999999999 [dLambda -0.050000000000000044]
TCL: Setting parameter firsttimestep to 0
TCL: Setting parameter alchLambda to 0.8999999999999999
Info: NONBONDED TABLE R-SQUARED SPACING: 0.0625
Info: NONBONDED TABLE SIZE: 705 POINTS
TCL: Setting parameter alchLambda2 to 0.8499999999999999
Info: NONBONDED TABLE R-SQUARED SPACING: 0.0625
Info: NONBONDED TABLE SIZE: 705 POINTS
TCL: Running for 1500000 steps
ETITLE: TS BOND ANGLE DIHED IMPRP ELECT VDW BOUNDARY MISC KINETIC TOTAL TEMP POTENTIAL TOTALAVG TEMPAVG PRESSURE GPRESSURE VOLUME PRESSAVG GPRESSAVG
ENERGY: 0 4.3826 13.5431 5.8880 0.0000 -10715.4053 1412.8460 0.0000 0.0000 1764.7755 -7513.9701 299.5195 -9278.7456 -7513.9701 299.5195 -341.7140 -266.2942 30762.8132 -341.7140 -266.2942
ENERGY: 300000 3.0295 10.6416 6.1365 0.0000 -10737.5406 1476.6187 0.0000 0.0000 1735.4343 -7505.6799 294.5397 -9241.1142 -7468.8729 300.6305 278.3550 397.1917 30456.3350 202.3575 287.1565
ENERGY: 600000 2.4120 12.9319 5.4643 0.0000 -10626.0949 1372.4083 0.0000 0.0000 1745.0702 -7487.8083 296.1751 -9232.8785 -7463.3604 301.0736 -116.3689 -81.9696 29991.0830 65.7241 136.0056
ENERGY: 900000 3.2677 11.3909 9.8756 0.0000 -10763.7270 1425.7155 0.0000 0.0000 1818.1205 -7495.3568 308.5733 -9313.4773 -7464.4737 300.7740 -23.5602 -38.1429 30324.4154 5.9763 69.3935
ENERGY: 1200000 3.3839 10.3466 4.4288 0.0000 -10829.0015 1462.7506 0.0000 0.0000 1766.8640 -7581.2276 299.8740 -9348.0916 -7473.8629 300.5412 244.2470 286.9804 29901.5689 27.6968 87.6162
ENERGY: 1500000 1.8496 11.7707 5.0762 0.0000 -10690.3428 1444.1969 0.0000 0.0000 1706.7202 -7520.7291 289.6663 -9227.4493 -7472.3049 299.4595 131.2912 223.2140 30234.9091 33.3049 88.4881
TCL: Running FEP window   4: Lambda1 0.8499999999999999 Lambda2 0.7999999999999998 [dLambda -0.050000000000000044]
TCL: Setting parameter firsttimestep to 0
TCL: Setting parameter alchLambda to 0.8499999999999999
Info: NONBONDED TABLE R-SQUARED SPACING: 0.0625
Info: NONBONDED TABLE SIZE: 705 POINTS
TCL: Setting parameter alchLambda2 to 0.7999999999999998
Info: NONBONDED TABLE R-SQUARED SPACING: 0.0625
Info: NONBONDED TABLE SIZE: 705 POINTS
TCL: Running for 1500000 steps
ETITLE: TS BOND ANGLE DIHED IMPRP ELECT VDW BOUNDARY MISC KINETIC TOTAL TEMP POTENTIAL TOTALAVG TEMPAVG PRESSURE GPRESSURE VOLUME PRESSAVG GPRESSAVG
ENERGY: 0 1.8496 11.7707 5.0762 0.0000 -10689.5471 1444.3926 0.0000 0.0000 1705.8361 -7520.6219 289.5163 -9226.4580 -7520.6219 289.5163 109.7508 213.9546 30234.9091 109.7508 213.9546
ENERGY: 300000 3.5535 10.5456 6.3568 0.0000 -10640.0462 1382.9246 0.0000 0.0000 1682.1572 -7554.5085 285.4975 -9236.6657 -7478.4178 296.3555 -460.2385 -408.8347 30587.6664 -16.7601 63.8300
ENERGY: 600000 2.2342 12.1089 7.1213 0.0000 -10637.7535 1426.8791 0.0000 0.0000 1789.1210 -7400.2890 303.6515 -9189.4100 -7456.0258 299.0573 -117.9837 -25.6882 30907.8371 -132.3945 -41.3141
ENERGY: 900000 0.8910 17.6638 7.3220 0.0000 -10629.1336 1444.8132 0.0000 0.0000 1729.1651 -7429.2785 293.4757 -9158.4436 -7446.7190 299.3135 256.6490 325.1872 30520.7892 -102.1571 -10.9028
ENERGY: 1200000 2.8868 16.9866 7.1601 0.0000 -10634.5558 1460.6138 0.0000 0.0000 1775.4558 -7371.4527 301.3322 -9146.9085 -7453.6317 298.8532 318.8630 356.4488 30816.3216 0.7959 78.8724
ENERGY: 1500000 2.7019 15.1343 4.9216 0.0000 -10714.0059 1471.3547 0.0000 0.0000 1782.1729 -7437.7206 302.4722 -9219.8935 -7457.6003 299.0972 258.8311 336.5726 30443.7068 15.8494 98.3575
TCL: Running FEP window   5: Lambda1 0.7999999999999998 Lambda2 0.7499999999999998 [dLambda -0.050000000000000044]
TCL: Setting parameter firsttimestep to 0
TCL: Setting parameter alchLambda to 0.7999999999999998
Info: NONBONDED TABLE R-SQUARED SPACING: 0.0625
Info: NONBONDED TABLE SIZE: 705 POINTS
TCL: Setting parameter alchLambda2 to 0.7499999999999998
Info: NONBONDED TABLE R-SQUARED SPACING: 0.0625
Info: NONBONDED TABLE SIZE: 705 POINTS
TCL: Running for 1500000 steps
ETITLE: TS BOND ANGLE DIHED IMPRP ELECT VDW BOUNDARY MISC KINETIC TOTAL TEMP POTENTIAL TOTALAVG TEMPAVG PRESSURE GPRESSURE VOLUME PRESSAVG GPRESSAVG
ENERGY: 0 2.7019 15.1343 4.9216 0.0000 -10712.4726 1471.4568 0.0000 0.0000 1781.2791 -7436.9789 302.3206 -9218.2581 -7436.9789 302.3206 240.2172 329.1018 30443.7068 240.2172 329.1018
ENERGY: 300000 1.4173 11.7467 6.1216 0.0000 -10706.9096 1405.2041 0.0000 0.0000 1752.4567 -7529.9631 297.4288 -9282.4198 -7487.9094 302.3876 47.2229 125.0846 29738.8537 50.4149 142.7398
ENERGY: 600000 3.1509 8.6244 7.3132 0.0000 -10734.3894 1447.0841 0.0000 0.0000 1725.1622 -7543.0546 292.7963 -9268.2168 -7501.7301 298.4376 -19.3050 57.4663 30558.1107 -225.6014 -152.7498
ENERGY: 900000 1.4873 8.3426 5.7784 0.0000 -10667.0711 1437.9489 0.0000 0.0000 1757.1881 -7456.3258 298.2318 -9213.5139 -7495.1701 299.3009 141.6304 126.9842 30631.6314 -120.6947 -66.0033
ENERGY: 1200000 3.2795 11.3147 6.4795 0.0000 -10641.1883 1396.1907 0.0000 0.0000 1801.2092 -7422.7147 305.7031 -9223.9239 -7487.7096 298.6717 -121.5034 -118.0775 30395.6391 -156.5669 -98.7117
ENERGY: 1500000 1.0576 18.9654 7.9889 0.0000 -10529.0305 1378.9539 0.0000 0.0000 1830.6130 -7291.4517 310.6935 -9122.0647 -7476.0769 299.6486 -16.2165 37.5314 30623.2699 -182.2237 -119.8844
TCL: Running FEP window   6: Lambda1 0.7499999999999998 Lambda2 0.6999999999999997 [dLambda -0.050000000000000044]
TCL: Setting parameter firsttimestep to 0
TCL: Setting parameter alchLambda to 0.7499999999999998
Info: NONBONDED TABLE R-SQUARED SPACING: 0.0625
Info: NONBONDED TABLE SIZE: 705 POINTS
TCL: Setting parameter alchLambda2 to 0.6999999999999997
Info: NONBONDED TABLE R-SQUARED SPACING: 0.0625
Info: NONBONDED TABLE SIZE: 705 POINTS
TCL: Running for 1500000 steps
ETITLE: TS BOND ANGLE DIHED IMPRP ELECT VDW BOUNDARY MISC KINETIC TOTAL TEMP POTENTIAL TOTALAVG TEMPAVG PRESSURE GPRESSURE VOLUME PRESSAVG GPRESSAVG
ENERGY: 0 1.0576 18.9654 7.9889 0.0000 -10528.3879 1379.0867 0.0000 0.0000 1829.7234 -7291.5659 310.5426 -9121.2893 -7291.5659 310.5426 -46.3158 29.7587 30623.2699 -46.3158 29.7587
ENERGY: 300000 3.2210 10.1717 5.4692 0.0000 -10516.3529 1368.0423 0.0000 0.0000 1837.1028 -7292.3460 311.7950 -9129.4488 -7379.3406 305.4614 -277.2690 -202.9251 30882.0828 230.3785 319.0008
ENERGY: 600000 1.8992 11.7166 6.1596 0.0000 -10839.4492 1486.0708 0.0000 0.0000 1727.7751 -7605.8280 293.2398 -9333.6030 -7445.5203 300.1173 191.4442 233.4841 30255.2757 206.2156 261.5781
ENERGY: 900000 2.7839 13.2461 6.2555 0.0000 -10512.0006 1342.0430 0.0000 0.0000 1700.8175 -7446.8547 288.6645 -9147.6721 -7438.8627 299.0886 -423.4651 -375.2597 30610.4107 113.5600 163.0518
ENERGY: 1200000 0.5089 14.6127 9.6533 0.0000 -10614.4098 1451.0587 0.0000 0.0000 1764.3115 -7374.2646 299.4408 -9138.5761 -7433.4430 299.4898 471.3267 620.9898 30326.1842 60.0924 114.3596
ENERGY: 1500000 2.3097 12.3660 8.5752 0.0000 -10743.7672 1426.5968 0.0000 0.0000 1776.3940 -7517.5256 301.4914 -9293.9196 -7439.3601 300.4543 -18.1366 77.1752 30287.1422 100.1978 158.2575
TCL: Running FEP window   7: Lambda1 0.6999999999999997 Lambda2 0.6499999999999997 [dLambda -0.050000000000000044]
TCL: Setting parameter firsttimestep to 0
TCL: Setting parameter alchLambda to 0.6999999999999997
Info: NONBONDED TABLE R-SQUARED SPACING: 0.0625
Info: NONBONDED TABLE SIZE: 705 POINTS
TCL: Setting parameter alchLambda2 to 0.6499999999999997
Info: NONBONDED TABLE R-SQUARED SPACING: 0.0625
Info: NONBONDED TABLE SIZE: 705 POINTS
TCL: Running for 1500000 steps
ETITLE: TS BOND ANGLE DIHED IMPRP ELECT VDW BOUNDARY MISC KINETIC TOTAL TEMP POTENTIAL TOTALAVG TEMPAVG PRESSURE GPRESSURE VOLUME PRESSAVG GPRESSAVG
ENERGY: 0 2.3097 12.3660 8.5752 0.0000 -10742.7375 1426.7224 0.0000 0.0000 1775.5382 -7517.2262 301.3462 -9292.7643 -7517.2262 301.3462 -22.9092 63.8218 30287.1422 -22.9092 63.8218
ENERGY: 300000 5.6461 11.2826 5.2393 0.0000 -10683.2085 1408.8093 0.0000 0.0000 1836.6390 -7415.5922 311.7163 -9252.2313 -7467.9320 301.8455 -583.0932 -490.8459 30885.5248 222.6036 300.7154
ENERGY: 600000 2.3933 10.2764 4.6893 0.0000 -10715.8995 1376.6143 0.0000 0.0000 1776.4511 -7545.4752 301.5011 -9321.9263 -7472.6162 302.2631 -748.9617 -652.0854 30435.2827 -82.8045 1.6848
ENERGY: 900000 1.7068 7.5620 5.9196 0.0000 -10801.3545 1492.9467 0.0000 0.0000 1787.7385 -7505.4808 303.4168 -9293.2194 -7476.8542 302.4467 432.1385 528.1177 30191.6993 28.2652 116.8411
ENERGY: 1200000 1.3017 14.1448 4.8269 0.0000 -10660.1635 1342.5806 0.0000 0.0000 1787.4365 -7509.8730 303.3656 -9297.3095 -7479.7268 301.9139 -930.3320 -830.1134 30512.7915 -78.7293 9.5138
ENERGY: 1500000 3.5306 10.3990 7.7127 0.0000 -10648.8000 1406.0237 0.0000 0.0000 1803.7377 -7417.3963 306.1322 -9221.1340 -7484.9133 301.3945 -223.2202 -184.9966 30360.1978 -33.1442 44.8523
TCL: Running FEP window   8: Lambda1 0.6499999999999997 Lambda2 0.5999999999999996 [dLambda -0.050000000000000044]
TCL: Setting parameter firsttimestep to 0
TCL: Setting parameter alchLambda to 0.6499999999999997
Info: NONBONDED TABLE R-SQUARED SPACING: 0.0625
Info: NONBONDED TABLE SIZE: 705 POINTS
TCL: Setting parameter alchLambda2 to 0.5999999999999996
Info: NONBONDED TABLE R-SQUARED SPACING: 0.0625
Info: NONBONDED TABLE SIZE: 705 POINTS
TCL: Running for 1500000 steps
ETITLE: TS BOND ANGLE DIHED IMPRP ELECT VDW BOUNDARY MISC KINETIC TOTAL TEMP POTENTIAL TOTALAVG TEMPAVG PRESSURE GPRESSURE VOLUME PRESSAVG GPRESSAVG
ENERGY: 0 3.5306 10.3990 7.7127 0.0000 -10648.5843 1406.3304 0.0000 0.0000 1802.8675 -7417.7442 305.9846 -9220.6117 -7417.7442 305.9846 -258.2649 -196.1246 30360.1978 -258.2649 -196.1246
ENERGY: 300000 3.4203 11.3155 6.6794 0.0000 -10694.1277 1475.9551 0.0000 0.0000 1762.1256 -7434.6317 299.0698 -9196.7574 -7432.5600 299.1363 476.4833 489.8840 30284.8635 80.0047 145.7826
ENERGY: 600000 10.5109 8.0173 6.7392 0.0000 -10600.5754 1342.3739 0.0000 0.0000 1711.9229 -7521.0113 290.5493 -9232.9341 -7437.6062 300.4673 -891.1408 -804.9334 30298.7704 -0.0169 76.6345
ENERGY: 900000 2.5699 12.9904 9.5023 0.0000 -10797.3437 1523.4962 0.0000 0.0000 1802.7872 -7445.9976 305.9709 -9248.7848 -7441.1452 301.7161 847.5303 879.2838 30060.9476 50.7698 116.5659
ENERGY: 1200000 1.9431 14.4146 5.1836 0.0000 -10579.2170 1408.8458 0.0000 0.0000 1748.0165 -7400.8134 296.6752 -9148.8299 -7445.0714 301.3424 -20.9834 57.4627 30378.8104 7.3625 75.9989
ENERGY: 1500000 0.6521 7.6157 6.1860 0.0000 -10858.9492 1520.7258 0.0000 0.0000 1760.4723 -7563.2974 298.7892 -9323.7697 -7454.0478 301.4603 442.9260 455.1381 30322.8250 5.6774 67.3035
TCL: Running FEP window   9: Lambda1 0.5999999999999996 Lambda2 0.5499999999999996 [dLambda -0.050000000000000044]
TCL: Setting parameter firsttimestep to 0
TCL: Setting parameter alchLambda to 0.5999999999999996
Info: NONBONDED TABLE R-SQUARED SPACING: 0.0625
Info: NONBONDED TABLE SIZE: 705 POINTS
TCL: Setting parameter alchLambda2 to 0.5499999999999996
Info: NONBONDED TABLE R-SQUARED SPACING: 0.0625
Info: NONBONDED TABLE SIZE: 705 POINTS
TCL: Running for 1500000 steps
ETITLE: TS BOND ANGLE DIHED IMPRP ELECT VDW BOUNDARY MISC KINETIC TOTAL TEMP POTENTIAL TOTALAVG TEMPAVG PRESSURE GPRESSURE VOLUME PRESSAVG GPRESSAVG
ENERGY: 0 0.6521 7.6157 6.1860 0.0000 -10858.7017 1520.6294 0.0000 0.0000 1759.5462 -7564.0724 298.6320 -9323.6186 -7564.0724 298.6320 346.4585 443.3588 30322.8250 346.4585 443.3588
ENERGY: 300000 2.6731 18.2144 8.6793 0.0000 -10732.4369 1452.4080 0.0000 0.0000 1777.9024 -7472.5597 301.7474 -9250.4621 -7512.9331 299.3893 -74.2244 -72.3021 30409.3290 288.2241 326.4130
ENERGY: 600000 1.2149 12.4449 6.5302 0.0000 -10677.5703 1440.0729 0.0000 0.0000 1761.1274 -7456.1800 298.9004 -9217.3074 -7497.9236 299.1575 -23.7520 11.0254 30610.2423 3.3270 59.3995
ENERGY: 900000 4.8035 8.6759 6.7069 0.0000 -10694.3126 1405.8014 0.0000 0.0000 1781.1618 -7487.1631 302.3006 -9268.3249 -7500.0365 299.8709 -298.2767 -258.0528 30229.5411 -167.4729 -115.8728
ENERGY: 1200000 3.1959 10.2167 6.3664 0.0000 -10765.8620 1475.3157 0.0000 0.0000 1801.4112 -7469.3561 305.7374 -9270.7673 -7496.5460 299.7689 341.0956 407.4577 30195.8519 30.4540 75.8401
ENERGY: 1500000 5.5922 12.2602 6.5571 0.0000 -10620.6286 1401.3986 0.0000 0.0000 1774.8685 -7419.9519 301.2325 -9194.8205 -7489.7177 299.5103 -244.7571 -194.2240 30483.0231 0.3683 46.3751
TCL: Running FEP window  10: Lambda1 0.5499999999999996 Lambda2 0.4999999999999996 [dLambda -0.04999999999999999]
TCL: Setting parameter firsttimestep to 0
TCL: Setting parameter alchLambda to 0.5499999999999996
Info: NONBONDED TABLE R-SQUARED SPACING: 0.0625
Info: NONBONDED TABLE SIZE: 705 POINTS
TCL: Setting parameter alchLambda2 to 0.4999999999999996
Info: NONBONDED TABLE R-SQUARED SPACING: 0.0625
Info: NONBONDED TABLE SIZE: 705 POINTS
TCL: Running for 1500000 steps
ETITLE: TS BOND ANGLE DIHED IMPRP ELECT VDW BOUNDARY MISC KINETIC TOTAL TEMP POTENTIAL TOTALAVG TEMPAVG PRESSURE GPRESSURE VOLUME PRESSAVG GPRESSAVG
ENERGY: 0 5.5922 12.2602 6.5571 0.0000 -10619.8037 1401.2850 0.0000 0.0000 1773.9850 -7420.1243 301.0826 -9194.1093 -7420.1243 301.0826 -281.6930 -204.5632 30483.0231 -281.6930 -204.5632
ENERGY: 300000 1.8936 7.4323 8.9612 0.0000 -10680.8746 1460.1360 0.0000 0.0000 1768.9260 -7433.5256 300.2240 -9202.4516 -7432.3768 299.8169 126.4783 190.8341 30477.1205 -84.4736 -28.2777
ENERGY: 600000 4.3589 12.1657 8.1648 0.0000 -10594.6850 1391.0732 0.0000 0.0000 1758.1563 -7420.7661 298.3961 -9178.9224 -7432.1392 299.3162 -307.0263 -246.7258 30407.6523 -188.4256 -130.4997
ENERGY: 900000 1.9657 9.4128 7.0059 0.0000 -10690.7907 1459.9169 0.0000 0.0000 1731.6135 -7480.8758 293.8913 -9212.4894 -7437.2355 299.9032 64.4900 152.8805 30766.3419 -73.2996 -13.5369
ENERGY: 1200000 3.4776 13.7013 7.2123 0.0000 -10652.8710 1400.0478 0.0000 0.0000 1786.0062 -7442.4257 303.1228 -9228.4319 -7457.2070 299.7583 -176.1368 -134.2162 30455.7243 -92.4658 -34.1555
ENERGY: 1500000 2.0485 12.7143 5.9830 0.0000 -10813.2932 1531.8923 0.0000 0.0000 1795.8195 -7464.8356 304.7884 -9260.6551 -7462.6638 300.1498 495.3338 546.7457 30526.2455 -63.7188 -6.9053
TCL: Running FEP window  11: Lambda1 0.4999999999999996 Lambda2 0.4499999999999996 [dLambda -0.04999999999999999]
TCL: Setting parameter firsttimestep to 0
TCL: Setting parameter alchLambda to 0.4999999999999996
Info: NONBONDED TABLE R-SQUARED SPACING: 0.0625
Info: NONBONDED TABLE SIZE: 705 POINTS
TCL: Setting parameter alchLambda2 to 0.4499999999999996
Info: NONBONDED TABLE R-SQUARED SPACING: 0.0625
Info: NONBONDED TABLE SIZE: 705 POINTS
TCL: Running for 1500000 steps
ETITLE: TS BOND ANGLE DIHED IMPRP ELECT VDW BOUNDARY MISC KINETIC TOTAL TEMP POTENTIAL TOTALAVG TEMPAVG PRESSURE GPRESSURE VOLUME PRESSAVG GPRESSAVG
ENERGY: 0 2.0485 12.7143 5.9830 0.0000 -10813.1056 1532.7041 0.0000 0.0000 1794.9714 -7464.6843 304.6444 -9259.6557 -7464.6843 304.6444 468.1303 546.1199 30526.2455 468.1303 546.1199
ENERGY: 300000 2.4967 14.7453 7.2194 0.0000 -10648.0811 1360.3633 0.0000 0.0000 1828.2788 -7434.9775 310.2974 -9263.2564 -7477.7276 302.9914 -576.1433 -557.7538 30406.6649 -385.9332 -362.5392
ENERGY: 600000 3.4587 14.7327 5.9217 0.0000 -10643.8164 1399.4157 0.0000 0.0000 1732.9182 -7487.3694 294.1127 -9220.2876 -7477.5348 302.2242 -100.9368 -23.6931 30248.9814 -230.6579 -174.8354
ENERGY: 900000 2.2658 13.4274 5.4716 0.0000 -10740.4230 1445.5394 0.0000 0.0000 1740.0244 -7533.6944 295.3188 -9273.7188 -7475.7128 300.7720 11.8134 120.3561 30337.8615 -252.9516 -183.7825
ENERGY: 1200000 2.4838 8.9593 8.7236 0.0000 -10570.3606 1383.9613 0.0000 0.0000 1734.2929 -7431.9397 294.3460 -9166.2326 -7484.5427 299.3457 -327.2603 -285.5339 30552.9306 -198.6970 -132.4587
ENERGY: 1500000 2.7656 6.5276 5.6160 0.0000 -10734.0640 1458.9080 0.0000 0.0000 1778.7294 -7481.5174 301.8878 -9260.2468 -7478.1773 299.1480 273.1842 365.8900 30174.2031 -160.3715 -90.9250
TCL: Running FEP window  12: Lambda1 0.4499999999999996 Lambda2 0.39999999999999963 [dLambda -0.04999999999999999]
TCL: Setting parameter firsttimestep to 0
TCL: Setting parameter alchLambda to 0.4499999999999996
Info: NONBONDED TABLE R-SQUARED SPACING: 0.0625
Info: NONBONDED TABLE SIZE: 705 POINTS
TCL: Setting parameter alchLambda2 to 0.39999999999999963
Info: NONBONDED TABLE R-SQUARED SPACING: 0.0625
Info: NONBONDED TABLE SIZE: 705 POINTS
TCL: Running for 1500000 steps
ETITLE: TS BOND ANGLE DIHED IMPRP ELECT VDW BOUNDARY MISC KINETIC TOTAL TEMP POTENTIAL TOTALAVG TEMPAVG PRESSURE GPRESSURE VOLUME PRESSAVG GPRESSAVG
ENERGY: 0 2.7656 6.5276 5.6160 0.0000 -10734.0644 1459.5498 0.0000 0.0000 1777.8555 -7481.7499 301.7395 -9259.6055 -7481.7499 301.7395 288.0592 365.8790 30174.2031 288.0592 365.8790
ENERGY: 300000 3.5193 6.9858 5.0248 0.0000 -10727.4096 1471.4423 0.0000 0.0000 1770.9473 -7469.4900 300.5670 -9240.4373 -7496.0705 299.3945 279.0837 336.6263 30157.4559 269.2245 348.8497
ENERGY: 600000 2.6416 10.2770 7.7144 0.0000 -10692.3131 1432.4336 0.0000 0.0000 1762.9923 -7476.2541 299.2169 -9239.2465 -7487.9281 299.0374 -226.8831 -76.4467 30507.1721 227.2937 312.5640
ENERGY: 900000 5.7727 12.1269 7.9943 0.0000 -10782.1890 1543.2634 0.0000 0.0000 1802.8936 -7410.1381 305.9890 -9213.0317 -7464.3375 299.6063 469.9047 522.5524 30634.4956 136.5556 213.9593
ENERGY: 1200000 4.9033 11.6271 6.8830 0.0000 -10548.6421 1340.7954 0.0000 0.0000 1727.4941 -7456.9392 293.1921 -9184.4332 -7452.1671 299.0834 -480.2303 -411.8962 30040.7449 16.8583 93.9828
ENERGY: 1500000 1.4493 15.3547 6.3140 0.0000 -10556.6095 1311.7301 0.0000 0.0000 1822.8803 -7398.8811 309.3811 -9221.7614 -7457.8565 299.0634 -802.1041 -746.8093 30166.2227 -69.2811 7.3898
TCL: Running FEP window  13: Lambda1 0.39999999999999963 Lambda2 0.34999999999999964 [dLambda -0.04999999999999999]
TCL: Setting parameter firsttimestep to 0
TCL: Setting parameter alchLambda to 0.39999999999999963
Info: NONBONDED TABLE R-SQUARED SPACING: 0.0625
Info: NONBONDED TABLE SIZE: 705 POINTS
TCL: Setting parameter alchLambda2 to 0.34999999999999964
Info: NONBONDED TABLE R-SQUARED SPACING: 0.0625
Info: NONBONDED TABLE SIZE: 705 POINTS
TCL: Running for 1500000 steps
ETITLE: TS BOND ANGLE DIHED IMPRP ELECT VDW BOUNDARY MISC KINETIC TOTAL TEMP POTENTIAL TOTALAVG TEMPAVG PRESSURE GPRESSURE VOLUME PRESSAVG GPRESSAVG
ENERGY: 0 1.4493 15.3547 6.3140 0.0000 -10556.6095 1311.2939 0.0000 0.0000 1821.9460 -7400.2515 309.2226 -9222.1975 -7400.2515 309.2226 -832.9036 -763.2466 30166.2227 -832.9036 -763.2466
ENERGY: 300000 3.7508 10.6878 5.0617 0.0000 -10640.1582 1491.1974 0.0000 0.0000 1704.1948 -7425.2657 289.2377 -9129.4605 -7416.2686 302.4378 315.4172 453.5800 30635.9793 -106.3518 -13.1588
ENERGY: 600000 4.8903 13.6872 7.0255 0.0000 -10928.7092 1555.2680 0.0000 0.0000 1770.5689 -7577.2692 300.5028 -9347.8381 -7440.3435 302.4381 690.5297 752.7800 30077.5288 0.5742 82.6896
ENERGY: 900000 4.5308 11.7089 5.5636 0.0000 -10799.0802 1496.5933 0.0000 0.0000 1808.1189 -7472.5647 306.8758 -9280.6836 -7437.1956 301.8641 276.6402 328.9238 30357.8666 24.6329 96.1294
ENERGY: 1200000 5.8138 12.2916 6.7629 0.0000 -10717.9450 1442.8432 0.0000 0.0000 1767.4527 -7482.7810 299.9739 -9250.2337 -7461.3632 300.0499 0.3501 109.5659 30200.2510 -52.7435 15.7902
ENERGY: 1500000 2.1602 9.2736 6.6726 0.0000 -10676.6560 1403.5562 0.0000 0.0000 1763.8944 -7491.0991 299.3700 -9254.9934 -7460.7031 300.0040 -470.6590 -418.3525 30640.9321 -62.2006 -0.5806
TCL: Running FEP window  14: Lambda1 0.34999999999999964 Lambda2 0.29999999999999966 [dLambda -0.04999999999999999]
TCL: Setting parameter firsttimestep to 0
TCL: Setting parameter alchLambda to 0.34999999999999964
Info: NONBONDED TABLE R-SQUARED SPACING: 0.0625
Info: NONBONDED TABLE SIZE: 705 POINTS
TCL: Setting parameter alchLambda2 to 0.29999999999999966
Info: NONBONDED TABLE R-SQUARED SPACING: 0.0625
Info: NONBONDED TABLE SIZE: 705 POINTS
TCL: Running for 1500000 steps
ETITLE: TS BOND ANGLE DIHED IMPRP ELECT VDW BOUNDARY MISC KINETIC TOTAL TEMP POTENTIAL TOTALAVG TEMPAVG PRESSURE GPRESSURE VOLUME PRESSAVG GPRESSAVG
ENERGY: 0 2.1602 9.2736 6.6726 0.0000 -10676.6563 1403.8571 0.0000 0.0000 1763.0192 -7491.6737 299.2215 -9254.6929 -7491.6737 299.2215 -514.7283 -425.2639 30640.9321 -514.7283 -425.2639
ENERGY: 300000 3.9423 12.8495 4.1674 0.0000 -10599.5054 1358.5094 0.0000 0.0000 1807.0945 -7412.9424 306.7020 -9220.0369 -7449.0743 301.4012 -720.8810 -617.1339 30356.0675 -18.7611 66.3707
ENERGY: 600000 3.6283 12.7653 7.2311 0.0000 -10766.3084 1425.1801 0.0000 0.0000 1791.7856 -7525.7179 304.1037 -9317.5036 -7463.9677 300.9392 33.7088 44.2263 30238.7654 163.8724 227.7820
ENERGY: 900000 2.1134 11.9527 7.2906 0.0000 -10610.7633 1382.2245 0.0000 0.0000 1761.5830 -7445.5990 298.9777 -9207.1820 -7464.9963 301.3509 -426.9693 -338.0142 30418.8202 6.3794 74.1864
ENERGY: 1200000 3.9751 13.1310 5.4820 0.0000 -10634.8719 1399.8196 0.0000 0.0000 1793.9120 -7418.5521 304.4646 -9212.4641 -7458.8376 301.4338 -294.0143 -250.5185 30717.1604 -20.3202 45.2758
ENERGY: 1500000 3.3937 10.6580 5.9593 0.0000 -10716.3996 1461.9136 0.0000 0.0000 1797.4107 -7437.0642 305.0584 -9234.4749 -7462.7311 300.8598 213.2768 249.0217 30328.0551 -0.7913 63.5761
TCL: Running FEP window  15: Lambda1 0.29999999999999966 Lambda2 0.24999999999999967 [dLambda -0.04999999999999999]
TCL: Setting parameter firsttimestep to 0
TCL: Setting parameter alchLambda to 0.29999999999999966
Info: NONBONDED TABLE R-SQUARED SPACING: 0.0625
Info: NONBONDED TABLE SIZE: 705 POINTS
TCL: Setting parameter alchLambda2 to 0.24999999999999967
Info: NONBONDED TABLE R-SQUARED SPACING: 0.0625
Info: NONBONDED TABLE SIZE: 705 POINTS
TCL: Running for 1500000 steps
ETITLE: TS BOND ANGLE DIHED IMPRP ELECT VDW BOUNDARY MISC KINETIC TOTAL TEMP POTENTIAL TOTALAVG TEMPAVG PRESSURE GPRESSURE VOLUME PRESSAVG GPRESSAVG
ENERGY: 0 3.3937 10.6580 5.9593 0.0000 -10716.3999 1462.3484 0.0000 0.0000 1796.5264 -7437.5140 304.9083 -9234.0404 -7437.5140 304.9083 167.2461 244.3355 30328.0551 167.2461 244.3355
ENERGY: 300000 4.4667 14.5399 7.6936 0.0000 -10634.0671 1378.2861 0.0000 0.0000 1758.8686 -7470.2121 298.5170 -9229.0807 -7462.0660 303.3504 -613.7889 -601.0044 30401.7176 -195.5416 -145.7814
ENERGY: 600000 1.6977 12.8278 5.9821 0.0000 -10568.3265 1370.9247 0.0000 0.0000 1773.0231 -7403.8710 300.9193 -9176.8941 -7452.9043 302.8966 -566.5307 -520.0414 30416.4839 -179.9498 -140.7913
ENERGY: 900000 7.3004 10.8541 6.8645 0.0000 -10686.3231 1422.8550 0.0000 0.0000 1804.6779 -7433.7712 306.2918 -9238.4491 -7450.0278 302.6371 -205.2509 -201.8188 30528.5782 -203.7498 -166.5015
ENERGY: 1200000 1.9159 11.0799 6.6872 0.0000 -10561.8584 1418.2148 0.0000 0.0000 1741.1938 -7382.7668 295.5172 -9123.9606 -7450.7831 301.0429 147.6059 171.3116 30453.7390 -77.3696 -35.6767
ENERGY: 1500000 0.8466 12.1455 7.4344 0.0000 -10824.5698 1479.0957 0.0000 0.0000 1748.5696 -7576.4780 296.7691 -9325.0476 -7453.7179 300.7970 26.6233 160.8841 30281.0897 -37.2246 9.4084
TCL: Running FEP window  16: Lambda1 0.24999999999999967 Lambda2 0.19999999999999968 [dLambda -0.04999999999999999]
TCL: Setting parameter firsttimestep to 0
TCL: Setting parameter alchLambda to 0.24999999999999967
Info: NONBONDED TABLE R-SQUARED SPACING: 0.0625
Info: NONBONDED TABLE SIZE: 705 POINTS
TCL: Setting parameter alchLambda2 to 0.19999999999999968
Info: NONBONDED TABLE R-SQUARED SPACING: 0.0625
Info: NONBONDED TABLE SIZE: 705 POINTS
TCL: Running for 1500000 steps
ETITLE: TS BOND ANGLE DIHED IMPRP ELECT VDW BOUNDARY MISC KINETIC TOTAL TEMP POTENTIAL TOTALAVG TEMPAVG PRESSURE GPRESSURE VOLUME PRESSAVG GPRESSAVG
ENERGY: 0 0.8466 12.1455 7.4344 0.0000 -10824.5701 1478.7640 0.0000 0.0000 1747.6912 -7577.6883 296.6200 -9325.3795 -7577.6883 296.6200 75.2828 155.0783 30281.0897 75.2828 155.0783
ENERGY: 300000 3.4144 12.4909 4.8159 0.0000 -10733.4464 1447.1898 0.0000 0.0000 1795.8560 -7469.6793 304.7946 -9265.5353 -7525.9723 298.3180 27.1799 101.9760 30155.7983 -55.9534 47.5523
ENERGY: 600000 2.1053 12.8147 6.1542 0.0000 -10619.5879 1384.7432 0.0000 0.0000 1756.3323 -7457.4382 298.0866 -9213.7705 -7493.3072 298.2213 -503.3847 -404.4077 30353.3070 -60.2126 14.7272
ENERGY: 900000 5.3863 17.9381 6.6083 0.0000 -10746.2716 1465.8482 0.0000 0.0000 1770.3742 -7480.1165 300.4698 -9250.4907 -7484.6315 298.7671 -4.0858 154.4057 30104.8796 -16.4821 64.0909
ENERGY: 1200000 5.9188 9.6408 8.2612 0.0000 -10750.2759 1440.4165 0.0000 0.0000 1749.7433 -7536.2953 296.9683 -9286.0387 -7485.3869 298.8216 -183.5037 -70.0071 29969.5207 -59.0538 12.0527
ENERGY: 1500000 7.9770 8.2836 6.0278 0.0000 -10778.7529 1521.8990 0.0000 0.0000 1765.9852 -7468.5803 299.7249 -9234.5655 -7486.5462 298.5271 780.6705 861.6831 29750.8774 21.9977 96.7124
TCL: Running FEP window  17: Lambda1 0.19999999999999968 Lambda2 0.1499999999999997 [dLambda -0.04999999999999999]
TCL: Setting parameter firsttimestep to 0
TCL: Setting parameter alchLambda to 0.19999999999999968
Info: NONBONDED TABLE R-SQUARED SPACING: 0.0625
Info: NONBONDED TABLE SIZE: 705 POINTS
TCL: Setting parameter alchLambda2 to 0.1499999999999997
Info: NONBONDED TABLE R-SQUARED SPACING: 0.0625
Info: NONBONDED TABLE SIZE: 705 POINTS
TCL: Running for 1500000 steps
ETITLE: TS BOND ANGLE DIHED IMPRP ELECT VDW BOUNDARY MISC KINETIC TOTAL TEMP POTENTIAL TOTALAVG TEMPAVG PRESSURE GPRESSURE VOLUME PRESSAVG GPRESSAVG
ENERGY: 0 7.9770 8.2836 6.0278 0.0000 -10778.7528 1522.3409 0.0000 0.0000 1765.1359 -7468.9876 299.5807 -9234.1235 -7468.9876 299.5807 795.4449 858.0091 29750.8774 795.4449 858.0091
ENERGY: 300000 3.9765 14.4207 6.9487 0.0000 -10632.3466 1392.9994 0.0000 0.0000 1784.6671 -7429.3342 302.8956 -9214.0013 -7446.4758 298.5378 -307.7803 -285.4892 30563.5641 -170.2127 -99.3814
ENERGY: 600000 3.9882 7.2747 7.7861 0.0000 -10663.7990 1441.7853 0.0000 0.0000 1795.9038 -7407.0609 304.8027 -9202.9647 -7438.7026 300.5130 -180.9937 -206.9514 31013.8109 -105.7985 -62.0354
ENERGY: 900000 2.3201 10.4433 5.5946 0.0000 -10737.7945 1437.7182 0.0000 0.0000 1771.0074 -7510.7109 300.5772 -9281.7183 -7466.9174 299.4230 -261.1520 -228.6339 30439.9314 -153.5407 -109.1329
ENERGY: 1200000 4.1758 14.3376 7.1934 0.0000 -10690.2516 1542.2844 0.0000 0.0000 1789.8080 -7332.4524 303.7681 -9122.2605 -7454.3534 299.8090 1203.1721 1273.8917 30288.1015 2.1242 47.4949
ENERGY: 1500000 3.8362 14.9943 6.1400 0.0000 -10592.9959 1387.9062 0.0000 0.0000 1770.8474 -7409.2717 300.5501 -9180.1191 -7467.1581 299.6005 -39.6101 -39.1064 30325.9754 26.5831 73.8916
TCL: Running FEP window  18: Lambda1 0.1499999999999997 Lambda2 0.09999999999999969 [dLambda -0.05 ]
TCL: Setting parameter firsttimestep to 0
TCL: Setting parameter alchLambda to 0.1499999999999997
Info: NONBONDED TABLE R-SQUARED SPACING: 0.0625
Info: NONBONDED TABLE SIZE: 705 POINTS
TCL: Setting parameter alchLambda2 to 0.09999999999999969
Info: NONBONDED TABLE R-SQUARED SPACING: 0.0625
Info: NONBONDED TABLE SIZE: 705 POINTS
TCL: Running for 1500000 steps
ETITLE: TS BOND ANGLE DIHED IMPRP ELECT VDW BOUNDARY MISC KINETIC TOTAL TEMP POTENTIAL TOTALAVG TEMPAVG PRESSURE GPRESSURE VOLUME PRESSAVG GPRESSAVG
ENERGY: 0 3.8362 14.9943 6.1400 0.0000 -10592.9964 1388.4632 0.0000 0.0000 1769.9726 -7409.5901 300.4016 -9179.5627 -7409.5901 300.4016 -122.7017 -42.2591 30325.9754 -122.7017 -42.2591
ENERGY: 300000 5.1367 10.2020 4.7507 0.0000 -10688.3169 1452.4652 0.0000 0.0000 1777.2755 -7438.4868 301.6410 -9215.7623 -7469.5184 297.3493 227.8222 300.6099 30072.9316 197.8064 263.8161
ENERGY: 600000 3.8896 10.7516 5.6267 0.0000 -10725.8561 1421.4234 0.0000 0.0000 1795.6878 -7488.4770 304.7660 -9284.1648 -7470.9928 299.5778 -144.3635 -80.3137 30108.1820 -8.8515 41.5096
ENERGY: 900000 2.8548 7.9012 7.5838 0.0000 -10510.0876 1343.9772 0.0000 0.0000 1767.4746 -7380.2961 299.9776 -9147.7706 -7461.0510 299.1906 -498.8498 -452.4249 30172.2759 -141.1279 -81.9297
ENERGY: 1200000 1.0161 12.1903 5.8079 0.0000 -10599.8197 1367.2869 0.0000 0.0000 1761.1054 -7452.4131 298.8967 -9213.5185 -7451.2782 299.4694 -732.4763 -673.3322 30494.3980 -214.5564 -163.5427
ENERGY: 1500000 4.0265 18.4201 6.6699 0.0000 -10835.1628 1513.8766 0.0000 0.0000 1763.6660 -7528.5036 299.3312 -9292.1697 -7462.0121 298.5948 361.9197 435.0025 30180.6790 -103.7768 -52.1129
TCL: Running FEP window  19: Lambda1 0.09999999999999969 Lambda2 0.049999999999999684 [dLambda -0.05 ]
TCL: Setting parameter firsttimestep to 0
TCL: Setting parameter alchLambda to 0.09999999999999969
Info: NONBONDED TABLE R-SQUARED SPACING: 0.0625
Info: NONBONDED TABLE SIZE: 705 POINTS
TCL: Setting parameter alchLambda2 to 0.049999999999999684
Info: NONBONDED TABLE R-SQUARED SPACING: 0.0625
Info: NONBONDED TABLE SIZE: 705 POINTS
TCL: Running for 1500000 steps
ETITLE: TS BOND ANGLE DIHED IMPRP ELECT VDW BOUNDARY MISC KINETIC TOTAL TEMP POTENTIAL TOTALAVG TEMPAVG PRESSURE GPRESSURE VOLUME PRESSAVG GPRESSAVG
ENERGY: 0 4.0265 18.4201 6.6699 0.0000 -10835.1642 1514.6457 0.0000 0.0000 1762.7743 -7528.6277 299.1799 -9291.4020 -7528.6277 299.1799 340.9757 434.3225 30180.6790 340.9757 434.3225
ENERGY: 300000 3.6858 9.1645 5.2256 0.0000 -10639.4894 1415.0458 0.0000 0.0000 1797.3450 -7409.0228 305.0473 -9206.3678 -7459.2522 300.7300 91.6369 132.7749 29861.2607 28.2615 88.4489
ENERGY: 600000 3.2687 9.2825 6.7814 0.0000 -10638.4890 1390.0073 0.0000 0.0000 1749.5952 -7479.5538 296.9431 -9229.1490 -7448.0424 301.8049 -356.2806 -286.8351 30100.8910 -13.7751 50.7126
ENERGY: 900000 3.0080 7.3296 5.9470 0.0000 -10802.0506 1482.6010 0.0000 0.0000 1782.2958 -7520.8694 302.4931 -9303.1651 -7456.1699 301.8717 470.6010 556.0029 29511.4005 -45.2301 24.9549
ENERGY: 1200000 1.7157 17.3549 6.6781 0.0000 -10532.7962 1365.5106 0.0000 0.0000 1754.6797 -7386.8572 297.8061 -9141.5368 -7455.0784 301.4804 -374.6479 -333.6440 30037.5238 -75.1344 -9.0264
ENERGY: 1500000 2.0838 11.7666 6.7151 0.0000 -10748.8661 1477.7791 0.0000 0.0000 1800.5242 -7449.9973 305.5868 -9250.5215 -7449.7489 301.8688 239.4187 241.4906 30337.9676 -92.3990 -34.7787
TCL: Running FEP window  20: Lambda1 0.049999999999999684 Lambda2 0.0    [dLambda -0.049999999999999684]
TCL: Setting parameter firsttimestep to 0
TCL: Setting parameter alchLambda to 0.049999999999999684
Info: NONBONDED TABLE R-SQUARED SPACING: 0.0625
Info: NONBONDED TABLE SIZE: 705 POINTS
TCL: Setting parameter alchLambda2 to 0.0
Info: NONBONDED TABLE R-SQUARED SPACING: 0.0625
Info: NONBONDED TABLE SIZE: 705 POINTS
TCL: Running for 1500000 steps
ETITLE: TS BOND ANGLE DIHED IMPRP ELECT VDW BOUNDARY MISC KINETIC TOTAL TEMP POTENTIAL TOTALAVG TEMPAVG PRESSURE GPRESSURE VOLUME PRESSAVG GPRESSAVG
ENERGY: 0 2.0838 11.7666 6.7151 0.0000 -10748.8656 1477.4298 0.0000 0.0000 1799.6600 -7451.2102 305.4402 -9250.8702 -7451.2102 305.4402 166.4236 238.3812 30337.9676 166.4236 238.3812
ENERGY: 300000 3.2021 9.8618 9.5818 0.0000 -10652.9975 1382.5804 0.0000 0.0000 1743.3802 -7504.3912 295.8883 -9247.7713 -7449.9156 302.7600 -448.3047 -382.1964 30325.5114 -182.6060 -111.1032
ENERGY: 600000 2.4573 16.1681 7.7643 0.0000 -10617.8982 1438.0239 0.0000 0.0000 1750.1327 -7403.3519 297.0344 -9153.4846 -7443.6677 300.3271 54.3149 144.1436 30271.4756 -131.5313 -54.2921
ENERGY: 900000 1.8436 8.7650 5.9695 0.0000 -10679.5241 1462.5087 0.0000 0.0000 1788.5474 -7411.8900 303.5541 -9200.4374 -7447.8046 300.2098 191.7700 270.8767 30465.5965 -224.6931 -150.6164
ENERGY: 1200000 1.6805 15.5682 5.2148 0.0000 -10751.6325 1423.1421 0.0000 0.0000 1785.2299 -7520.7969 302.9911 -9306.0268 -7463.4736 300.0575 -398.7840 -325.1132 30305.9428 -207.6206 -131.3095
ENERGY: 1500000 5.2103 11.5038 3.7649 0.0000 -10694.5952 1475.9456 0.0000 0.0000 1797.0248 -7401.1457 304.9929 -9198.1705 -7451.6286 300.0347 505.5269 525.3402 29935.6988 -149.6491 -74.2851
TCL: Exiting due to exit command.
