Info: SIMULATION PARAMETERS:
Info: TIMESTEP               2
Info: NUMBER OF STEPS        0
Info: STEPS PER CYCLE        10
Info: PERIODIC CELL BASIS 1  28.5184 0 0
Info: PERIODIC CELL BASIS 2  0 32.4932 0
Info: PERIODIC CELL BASIS 3  0 0 32.335
Info: PERIODIC CELL CENTER   0 0 0
Info: WRAPPING WATERS AROUND PERIODIC BOUNDARIES ON OUTPUT.
Info: WRAPPING ALL CLUSTERS AROUND PERIODIC BOUNDARIES ON OUTPUT.
Info: FIRST LDB TIMESTEP     50
Info: LAST LDB TIMESTEP     -1
Info: HOM BACKGROUND SCALING 1
Info: PME BACKGROUND SCALING 1
Info: MIN ATOMS PER PATCH    40
Info: EMPTY PATCH LOAD       40 ATOMS
Info: VELOCITY FILE          mobley_3167746_equil.vel
Info: CENTER OF MASS MOVING INITIALLY? NO
Info: DIELECTRIC             1
Info: EXCLUDE                SCALED ONE-FOUR
Info: 1-4 ELECTROSTATICS SCALED BY 0.833333
Info: MODIFIED 1-4 VDW PARAMETERS WILL BE USED
Info: DCD FILENAME           mobley_3167746_prod.dcd
Info: DCD FREQUENCY          100000
Info: DCD FIRST STEP         100000
Info: DCD FILE WILL CONTAIN UNIT CELL DATA
Info: XST FILENAME           mobley_3167746_prod.xst
Info: XST FREQUENCY          100000
Info: NO VELOCITY DCD OUTPUT
Info: NO FORCE DCD OUTPUT
Info: OUTPUT FILENAME        mobley_3167746_prod
Info: BINARY OUTPUT FILES WILL BE USED
Info: RESTART FILENAME       mobley_3167746_prod.restart
Info: RESTART FREQUENCY      100000
Info: BINARY RESTART FILES WILL BE USED
Info: CUTOFF                 9
Info: PAIRLIST DISTANCE      11
Info: PAIRLIST SHRINK RATE   0.01
Info: PAIRLIST GROW RATE     0.01
Info: PAIRLIST TRIGGER       0.3
Info: PAIRLISTS PER CYCLE    2
Info: PAIRLISTS ENABLED
Info: MARGIN                 2
Info: HYDROGEN GROUP CUTOFF  2.5
Info: PATCH DIMENSION        15.5
Info: ENERGY OUTPUT STEPS    100000
Info: ENERGY EVALUATION STEPS    100000
Info: OUTPUT ENERGY PRECISION 4
Info: CROSSTERM ENERGY INCLUDED IN DIHEDRAL
Info: TIMING OUTPUT STEPS    1000000
Info: PRESSURE OUTPUT STEPS  100000
Info: ALCHEMICAL FEP ON
Info: FEP CURRENT LAMBDA VALUE     0
Info: FEP COMPARISON LAMBDA VALUE  0.05
Info: FEP INTRA-ALCHEMICAL NON-BONDED INTERACTIONS WILL BE RETAINED
Info: FEP INTRA-ALCHEMICAL BONDED INTERACTIONS WILL BE RETAINED
Info: FEP VDW SHIFTING COEFFICIENT 5
Info: FEP ELEC. ACTIVE FOR ANNIHILATED PARTICLES BETWEEN LAMBDA = 0 AND LAMBDA = 0.5
Info: FEP ELEC. ACTIVE FOR EXNIHILATED PARTICLES BETWEEN LAMBDA = 0.5 AND LAMBDA = 1
Info: FEP VDW ACTIVE FOR ANNIHILATED PARTICLES BETWEEN LAMBDA = 0 AND LAMBDA = 1
Info: FEP VDW ACTIVE FOR EXNIHILATED PARTICLES BETWEEN LAMBDA = 0 AND LAMBDA = 1
Info: FEP BOND ACTIVE FOR ANNIHILATED PARTICLES BETWEEN LAMBDA = 1 AND LAMBDA = 1
Info: FEP BOND ACTIVE FOR EXNIHILATED PARTICLES BETWEEN LAMBDA = 0 AND LAMBDA = 0
Info: LANGEVIN DYNAMICS ACTIVE
Info: LANGEVIN TEMPERATURE   300
Info: LANGEVIN USING BBK INTEGRATOR
Info: LANGEVIN DAMPING COEFFICIENT IS 1 INVERSE PS
Info: LANGEVIN DYNAMICS APPLIED TO HYDROGENS
Info: LANGEVIN PISTON PRESSURE CONTROL ACTIVE
Info:        TARGET PRESSURE IS 1.01325 BAR
Info:     OSCILLATION PERIOD IS 50 FS
Info:             DECAY TIME IS 25 FS
Info:     PISTON TEMPERATURE IS 300 K
Info:       PRESSURE CONTROL IS GROUP-BASED
Info:    INITIAL STRAIN RATE IS 0.000834557 0.000834557 0.000834557
Info:       CELL FLUCTUATION IS ISOTROPIC
Info: PARTICLE MESH EWALD (PME) ACTIVE
Info: PME TOLERANCE               1e-06
Info: PME EWALD COEFFICIENT       0.348832
Info: PME INTERPOLATION ORDER     4
Info: PME GRID DIMENSIONS         32 36 36
Info: PME MAXIMUM GRID SPACING    1
Info: PME CALCULATION WILL BE PERFORMED ON GPU
Info: FULL ELECTROSTATIC EVALUATION FREQUENCY      2
Info: USING VERLET I (r-RESPA) MTS SCHEME.
Info: C1 SPLITTING OF LONG RANGE ELECTROSTATICS
Info: PLACING ATOMS IN PATCHES BY HYDROGEN GROUPS
Info: RIGID BONDS TO HYDROGEN : ALL
Info:         ERROR TOLERANCE : 1e-08
Info:          MAX ITERATIONS : 100
Info: RIGID WATER USING SETTLE ALGORITHM
Info: RANDOM NUMBER SEED     1744035175
Info: USE HYDROGEN BONDS?    NO
Info: Using AMBER format force field!
Info: AMBER PARM FILE        mobley_3167746.prmtop
Info: COORDINATE PDB         mobley_3167746.pdb
Info: Exclusions will be read from PARM file!
Info: SCNB (VDW SCALING)     2
Info: USING ARITHMETIC MEAN TO COMBINE L-J SIGMA PARAMETERS
Info: BINARY COORDINATES     mobley_3167746_equil.coor
Info: SUMMARY OF PARAMETERS:
Info: 4 BONDS
Info: 3 ANGLES
Info:   3 HARMONIC
Info:   0 COSINE-BASED
Info: 5 DIHEDRAL
Info: 0 IMPROPER
Info: 0 CROSSTERM
Info: 0 VDW
Info: 10 VDW_PAIRS
Info: 0 NBTHOLE_PAIRS
Info: To read alchdata from file: mobley_3167746.pdb
Info: To read alchflag data from column: 5
Info: STRUCTURE SUMMARY:
Info: 2900 ATOMS
Info: 2899 BONDS
Info: 48 ANGLES
Info: 73 DIHEDRALS
Info: 0 IMPROPERS
Info: 0 CROSSTERMS
Info: 3010 EXCLUSIONS
Info: 2892 RIGID BONDS
Info: ALCH: 0 ATOMS TO DISAPPEAR IN FINAL STATE
Info: ALCH: 26 ATOMS TO APPEAR IN FINAL STATE
Info: 5808 DEGREES OF FREEDOM
Info: 966 HYDROGEN GROUPS
Info: 4 ATOMS IN LARGEST HYDROGEN GROUP
Info: 966 MIGRATION GROUPS
Info: 4 ATOMS IN LARGEST MIGRATION GROUP
Info: TOTAL MASS = 17373.6 amu
Info: TOTAL CHARGE = 0.000100002 e
Info: MASS DENSITY = 0.962845 g/cm^3
Info: ATOM DENSITY = 0.0967847 atoms/A^3
Info: ADDED 0 IMPLICIT EXCLUSIONS
Info: NONBONDED TABLE R-SQUARED SPACING: 0.0625
Info: NONBONDED TABLE SIZE: 705 POINTS
Info: REMOVING COM VELOCITY 0.166938 0.247809 -0.210622
Info: Use 3D box decompostion in PME FFT.
Info: Updated CUDA force table with 4096 elements.
Info: Updated CUDA LJ table with 4 x 4 elements.
Info: Found 29 unique exclusion lists needing 100 bytes
TCL: Running for 1500000 steps
ETITLE: TS BOND ANGLE DIHED IMPRP ELECT VDW BOUNDARY MISC KINETIC TOTAL TEMP POTENTIAL TOTALAVG TEMPAVG PRESSURE GPRESSURE VOLUME PRESSAVG GPRESSAVG
ENERGY: 0 2.1813 16.7029 6.1341 0.0000 -10510.7308 1435.5547 0.0000 0.0000 1762.2480 -7287.9097 305.3731 -9050.1577 -7287.9097 305.3731 -3.9730 78.6852 29963.4268 -3.9730 78.6852
ENERGY: 300000 1.1736 11.5482 5.2850 0.0000 -10450.5703 1373.8176 0.0000 0.0000 1746.9807 -7311.7652 302.7275 -9058.7459 -7294.1355 301.5460 -655.7195 -520.5785 29950.4256 -104.4280 -31.3335
ENERGY: 600000 0.5336 12.9769 6.6383 0.0000 -10551.7689 1461.3143 0.0000 0.0000 1749.0691 -7321.2368 303.0894 -9070.3059 -7324.1643 300.0519 155.1667 224.4216 29746.1568 -307.9020 -226.1317
ENERGY: 900000 2.0977 16.9743 6.7924 0.0000 -10517.2741 1479.2216 0.0000 0.0000 1716.4924 -7295.6957 297.4443 -9012.1881 -7305.1435 301.0256 493.0620 511.2459 29655.8586 -193.5375 -115.6932
ENERGY: 1200000 1.8415 12.7352 4.7411 0.0000 -10580.7570 1455.6125 0.0000 0.0000 1732.0309 -7373.7958 300.1369 -9105.8267 -7301.0683 301.9217 418.7894 468.7254 29101.7393 -66.4800 3.7515
ENERGY: 1500000 2.2421 16.9578 5.1351 0.0000 -10326.0402 1365.3637 0.0000 0.0000 1764.4473 -7171.8941 305.7542 -8936.3414 -7282.4356 302.5105 81.0488 110.5727 29445.4277 6.1109 73.2621
TCL: Running FEP window   2: Lambda1 0.05   Lambda2 0.1    [dLambda 0.05  ]
TCL: Setting parameter firsttimestep to 0
TCL: Setting parameter alchLambda to 0.05
Info: NONBONDED TABLE R-SQUARED SPACING: 0.0625
Info: NONBONDED TABLE SIZE: 705 POINTS
TCL: Setting parameter alchLambda2 to 0.1
Info: NONBONDED TABLE R-SQUARED SPACING: 0.0625
Info: NONBONDED TABLE SIZE: 705 POINTS
TCL: Running for 1500000 steps
ETITLE: TS BOND ANGLE DIHED IMPRP ELECT VDW BOUNDARY MISC KINETIC TOTAL TEMP POTENTIAL TOTALAVG TEMPAVG PRESSURE GPRESSURE VOLUME PRESSAVG GPRESSAVG
ENERGY: 0 2.2421 16.9578 5.1351 0.0000 -10326.0415 1367.1774 0.0000 0.0000 1763.6050 -7170.9241 305.6083 -8934.5291 -7170.9241 305.6083 23.2358 118.7639 29445.4277 23.2358 118.7639
ENERGY: 300000 1.2340 9.2078 5.4405 0.0000 -10573.1292 1510.1636 0.0000 0.0000 1761.6554 -7285.4278 305.2704 -9047.0831 -7265.9007 300.3156 903.5086 1036.8506 29161.0197 -6.9817 87.3659
ENERGY: 600000 4.1780 12.3622 5.7091 0.0000 -10363.7771 1338.7500 0.0000 0.0000 1689.8568 -7312.9210 292.8287 -9002.7778 -7275.4726 298.9731 -561.0780 -485.3843 29426.4117 -78.0370 16.6740
ENERGY: 900000 1.7258 12.4642 4.0253 0.0000 -10369.1449 1413.2043 0.0000 0.0000 1756.5088 -7181.2164 304.3786 -8937.7253 -7266.1916 300.1842 160.2623 122.7274 30105.4355 -73.6112 6.7288
ENERGY: 1200000 1.8092 9.8951 4.1381 0.0000 -10570.6881 1478.7802 0.0000 0.0000 1702.8212 -7373.2443 295.0753 -9076.0656 -7277.1853 299.7072 160.4654 211.4304 29649.3723 -60.3260 18.5654
ENERGY: 1500000 4.5249 9.8255 5.0827 0.0000 -10407.5550 1315.9619 0.0000 0.0000 1699.2995 -7372.8605 294.4650 -9072.1600 -7283.5143 299.6728 -1081.7256 -939.0865 29573.6583 -130.4396 -46.8839
TCL: Running FEP window   3: Lambda1 0.1    Lambda2 0.15000000000000002 [dLambda 0.05000000000000002]
TCL: Setting parameter firsttimestep to 0
TCL: Setting parameter alchLambda to 0.1
Info: NONBONDED TABLE R-SQUARED SPACING: 0.0625
Info: NONBONDED TABLE SIZE: 705 POINTS
TCL: Setting parameter alchLambda2 to 0.15000000000000002
Info: NONBONDED TABLE R-SQUARED SPACING: 0.0625
Info: NONBONDED TABLE SIZE: 705 POINTS
TCL: Running for 1500000 steps
ETITLE: TS BOND ANGLE DIHED IMPRP ELECT VDW BOUNDARY MISC KINETIC TOTAL TEMP POTENTIAL TOTALAVG TEMPAVG PRESSURE GPRESSURE VOLUME PRESSAVG GPRESSAVG
ENERGY: 0 4.5249 9.8255 5.0827 0.0000 -10407.5553 1318.4682 0.0000 0.0000 1698.4246 -7371.2294 294.3134 -9069.6540 -7371.2294 294.3134 -1023.7358 -925.8453 29573.6583 -1023.7358 -925.8453
ENERGY: 300000 1.7186 12.9809 3.3505 0.0000 -10494.0910 1366.6658 0.0000 0.0000 1674.7697 -7434.6055 290.2143 -9109.3752 -7371.1516 293.4328 -741.1650 -642.3968 29766.5171 -142.6275 -72.2912
ENERGY: 600000 4.1702 8.6106 4.4673 0.0000 -10560.8475 1466.4521 0.0000 0.0000 1694.3151 -7382.8323 293.6013 -9077.1474 -7346.3912 295.6895 322.3512 350.2818 29267.8162 99.9589 151.7109
ENERGY: 900000 1.6975 10.9008 3.4492 0.0000 -10366.2088 1314.3245 0.0000 0.0000 1744.9553 -7290.8815 302.3765 -9035.8368 -7323.8580 296.3773 -995.9216 -983.0899 29918.7693 -8.4368 48.9480
ENERGY: 1200000 2.0863 12.5719 4.8827 0.0000 -10561.9402 1498.3259 0.0000 0.0000 1724.9193 -7319.1539 298.9046 -9044.0732 -7323.1534 296.6686 506.0047 573.3385 29660.1499 44.6569 100.6323
ENERGY: 1500000 1.0974 13.1250 3.4975 0.0000 -10445.4728 1402.3868 0.0000 0.0000 1815.1119 -7210.2544 314.5337 -9025.3662 -7314.4352 297.8836 -113.9002 9.5438 29827.6671 -6.0148 52.8347
TCL: Running FEP window   4: Lambda1 0.15000000000000002 Lambda2 0.2    [dLambda 0.04999999999999999]
TCL: Setting parameter firsttimestep to 0
TCL: Setting parameter alchLambda to 0.15000000000000002
Info: NONBONDED TABLE R-SQUARED SPACING: 0.0625
Info: NONBONDED TABLE SIZE: 705 POINTS
TCL: Setting parameter alchLambda2 to 0.2
Info: NONBONDED TABLE R-SQUARED SPACING: 0.0625
Info: NONBONDED TABLE SIZE: 705 POINTS
TCL: Running for 1500000 steps
ETITLE: TS BOND ANGLE DIHED IMPRP ELECT VDW BOUNDARY MISC KINETIC TOTAL TEMP POTENTIAL TOTALAVG TEMPAVG PRESSURE GPRESSURE VOLUME PRESSAVG GPRESSAVG
ENERGY: 0 1.0973 13.1250 3.4975 0.0000 -10445.4705 1404.2512 0.0000 0.0000 1814.2584 -7209.2411 314.3858 -9023.4995 -7209.2411 314.3858 -55.2010 21.4884 29827.6671 -55.2010 21.4884
ENERGY: 300000 3.8935 12.6212 4.9642 0.0000 -10313.6541 1386.5083 0.0000 0.0000 1710.7434 -7194.9235 296.4481 -8905.6669 -7246.5701 302.3219 -9.4669 92.8179 29601.0689 18.8211 86.4605
ENERGY: 600000 2.5723 10.1659 6.2824 0.0000 -10405.4416 1394.6546 0.0000 0.0000 1701.5017 -7290.2647 294.8466 -8991.7664 -7283.9974 300.0070 17.2179 152.0163 29576.4742 13.3468 77.9568
ENERGY: 900000 2.5697 11.7491 3.8048 0.0000 -10277.9643 1291.5724 0.0000 0.0000 1706.6034 -7261.6649 295.7307 -8968.2683 -7286.1460 298.9681 -871.5105 -786.6257 29948.5332 -83.4196 -16.2687
ENERGY: 1200000 4.5406 14.6071 6.7354 0.0000 -10259.4679 1323.2050 0.0000 0.0000 1727.4728 -7182.9070 299.3471 -8910.3798 -7292.2946 298.1479 -760.3944 -703.0434 30360.6962 -148.3552 -80.3683
ENERGY: 1500000 2.9290 19.2147 4.4356 0.0000 -10488.3966 1444.6627 0.0000 0.0000 1810.8857 -7206.2689 313.8014 -9017.1546 -7285.2557 299.1262 102.9872 148.3914 29945.3756 -113.5377 -51.4080
TCL: Running FEP window   5: Lambda1 0.2    Lambda2 0.25   [dLambda 0.04999999999999999]
TCL: Setting parameter firsttimestep to 0
TCL: Setting parameter alchLambda to 0.2
Info: NONBONDED TABLE R-SQUARED SPACING: 0.0625
Info: NONBONDED TABLE SIZE: 705 POINTS
TCL: Setting parameter alchLambda2 to 0.25
Info: NONBONDED TABLE R-SQUARED SPACING: 0.0625
Info: NONBONDED TABLE SIZE: 705 POINTS
TCL: Running for 1500000 steps
ETITLE: TS BOND ANGLE DIHED IMPRP ELECT VDW BOUNDARY MISC KINETIC TOTAL TEMP POTENTIAL TOTALAVG TEMPAVG PRESSURE GPRESSURE VOLUME PRESSAVG GPRESSAVG
ENERGY: 0 2.9290 19.2147 4.4356 0.0000 -10488.3965 1445.4165 0.0000 0.0000 1810.0154 -7206.3852 313.6505 -9016.4006 -7206.3852 313.6505 89.2015 158.8221 29945.3756 89.2015 158.8221
ENERGY: 300000 3.7419 11.8637 7.3403 0.0000 -10381.4024 1349.3424 0.0000 0.0000 1739.7134 -7269.4007 301.4682 -9009.1141 -7287.3250 304.1198 -615.1820 -528.5459 29620.7543 -160.3777 -106.2326
ENERGY: 600000 2.8581 10.0128 2.6025 0.0000 -10623.8235 1501.8461 0.0000 0.0000 1725.2458 -7381.2582 298.9612 -9106.5040 -7311.7838 302.2722 412.0712 461.1513 29644.1081 106.7689 155.9458
ENERGY: 900000 5.0202 10.7615 4.1595 0.0000 -10355.6630 1311.7395 0.0000 0.0000 1737.4629 -7286.5194 301.0782 -9023.9823 -7294.9710 303.3911 -920.3141 -827.2019 29828.2488 16.1989 64.0869
ENERGY: 1200000 8.0172 10.6993 5.8601 0.0000 -10498.1624 1415.1446 0.0000 0.0000 1729.8289 -7328.6122 299.7553 -9058.4411 -7305.1779 302.6460 -187.8844 -112.3953 29368.4832 -2.0545 47.6952
ENERGY: 1500000 1.8837 15.1733 5.6481 0.0000 -10316.3902 1307.3951 0.0000 0.0000 1758.3696 -7227.9203 304.7010 -8986.2899 -7298.3109 302.4970 -757.1472 -704.3707 30065.2790 -68.3807 -21.1804
TCL: Running FEP window   6: Lambda1 0.25   Lambda2 0.3    [dLambda 0.04999999999999999]
TCL: Setting parameter firsttimestep to 0
TCL: Setting parameter alchLambda to 0.25
Info: NONBONDED TABLE R-SQUARED SPACING: 0.0625
Info: NONBONDED TABLE SIZE: 705 POINTS
TCL: Setting parameter alchLambda2 to 0.3
Info: NONBONDED TABLE R-SQUARED SPACING: 0.0625
Info: NONBONDED TABLE SIZE: 705 POINTS
TCL: Running for 1500000 steps
ETITLE: TS BOND ANGLE DIHED IMPRP ELECT VDW BOUNDARY MISC KINETIC TOTAL TEMP POTENTIAL TOTALAVG TEMPAVG PRESSURE GPRESSURE VOLUME PRESSAVG GPRESSAVG
ENERGY: 0 1.8837 15.1734 5.6481 0.0000 -10316.3897 1308.2451 0.0000 0.0000 1757.5048 -7227.9346 304.5512 -8985.4395 -7227.9346 304.5512 -784.5540 -697.0703 30065.2790 -784.5540 -697.0703
ENERGY: 300000 1.4722 18.1625 4.5606 0.0000 -10431.6488 1415.9387 0.0000 0.0000 1699.0372 -7292.4776 294.4196 -8991.5147 -7258.5614 300.4451 10.7188 39.5481 29829.0721 -631.7196 -571.3115
ENERGY: 600000 3.9537 13.6161 4.6596 0.0000 -10428.4378 1401.4919 0.0000 0.0000 1750.5040 -7254.2125 303.3380 -9004.7165 -7281.2309 300.8887 254.5520 252.7000 29203.6955 -383.5773 -328.9723
ENERGY: 900000 1.2526 8.8990 3.3054 0.0000 -10571.9786 1490.4696 0.0000 0.0000 1720.1846 -7347.8673 298.0841 -9068.0520 -7289.1750 300.4254 552.9309 606.6273 29733.3409 -259.1094 -213.4193
ENERGY: 1200000 0.9161 20.6717 4.2370 0.0000 -10398.6137 1310.7797 0.0000 0.0000 1705.0387 -7356.9705 295.4595 -9062.0091 -7299.1068 299.9876 -861.7953 -784.1147 29655.6724 -225.4076 -174.2957
ENERGY: 1500000 1.9045 13.3851 5.9270 0.0000 -10508.9530 1373.6691 0.0000 0.0000 1754.7990 -7359.2683 304.0823 -9114.0672 -7297.6910 300.2286 -581.4393 -478.3250 29657.8483 -180.5281 -124.1946
TCL: Running FEP window   7: Lambda1 0.3    Lambda2 0.35   [dLambda 0.04999999999999999]
TCL: Setting parameter firsttimestep to 0
TCL: Setting parameter alchLambda to 0.3
Info: NONBONDED TABLE R-SQUARED SPACING: 0.0625
Info: NONBONDED TABLE SIZE: 705 POINTS
TCL: Setting parameter alchLambda2 to 0.35
Info: NONBONDED TABLE R-SQUARED SPACING: 0.0625
Info: NONBONDED TABLE SIZE: 705 POINTS
TCL: Running for 1500000 steps
ETITLE: TS BOND ANGLE DIHED IMPRP ELECT VDW BOUNDARY MISC KINETIC TOTAL TEMP POTENTIAL TOTALAVG TEMPAVG PRESSURE GPRESSURE VOLUME PRESSAVG GPRESSAVG
ENERGY: 0 1.9045 13.3851 5.9270 0.0000 -10508.9549 1373.5667 0.0000 0.0000 1753.9426 -7360.2290 303.9339 -9114.1716 -7360.2290 303.9339 -546.2376 -473.4661 29657.8483 -546.2376 -473.4661
ENERGY: 300000 2.0072 15.1877 3.8435 0.0000 -10426.0761 1365.1784 0.0000 0.0000 1733.0768 -7306.7826 300.3181 -9039.8594 -7315.1238 304.7991 -557.3803 -500.6733 30147.0045 -197.4139 -132.6500
ENERGY: 600000 2.3207 9.3584 4.7246 0.0000 -10424.1599 1360.8822 0.0000 0.0000 1716.8709 -7330.0032 297.5099 -9046.8741 -7330.5613 301.6467 -512.2419 -455.3646 29922.9394 44.1908 114.9361
ENERGY: 900000 5.2291 18.3496 3.9516 0.0000 -10461.2848 1381.9528 0.0000 0.0000 1698.3763 -7353.4254 294.3050 -9051.8017 -7323.6243 300.6664 -416.3750 -325.7682 29592.6183 80.4435 148.6531
ENERGY: 1200000 1.5024 12.2010 5.4835 0.0000 -10391.1039 1322.9081 0.0000 0.0000 1778.4417 -7270.5671 308.1793 -9049.0088 -7317.7388 301.5761 -836.6934 -795.5151 30053.1829 -3.8348 69.4174
ENERGY: 1500000 2.3590 10.3884 2.9839 0.0000 -10465.5543 1364.6957 0.0000 0.0000 1759.6500 -7325.4772 304.9229 -9085.1272 -7324.1525 301.5338 -684.8897 -590.4871 29625.0295 -52.0714 13.8223
TCL: Running FEP window   8: Lambda1 0.35   Lambda2 0.39999999999999997 [dLambda 0.04999999999999999]
TCL: Setting parameter firsttimestep to 0
TCL: Setting parameter alchLambda to 0.35
Info: NONBONDED TABLE R-SQUARED SPACING: 0.0625
Info: NONBONDED TABLE SIZE: 705 POINTS
TCL: Setting parameter alchLambda2 to 0.39999999999999997
Info: NONBONDED TABLE R-SQUARED SPACING: 0.0625
Info: NONBONDED TABLE SIZE: 705 POINTS
TCL: Running for 1500000 steps
ETITLE: TS BOND ANGLE DIHED IMPRP ELECT VDW BOUNDARY MISC KINETIC TOTAL TEMP POTENTIAL TOTALAVG TEMPAVG PRESSURE GPRESSURE VOLUME PRESSAVG GPRESSAVG
ENERGY: 0 2.3590 10.3884 2.9839 0.0000 -10465.5537 1365.0584 0.0000 0.0000 1758.7869 -7325.9770 304.7733 -9084.7639 -7325.9770 304.7733 -672.9993 -581.5166 29625.0295 -672.9993 -581.5166
ENERGY: 300000 2.9000 11.7239 4.0547 0.0000 -10508.5836 1408.5785 0.0000 0.0000 1783.8525 -7297.4741 309.1169 -9081.3266 -7329.0174 309.4838 -106.3462 -113.5529 29571.9701 -263.1970 -232.9805
ENERGY: 600000 1.4415 16.8361 3.4066 0.0000 -10417.5434 1380.5490 0.0000 0.0000 1714.0854 -7301.2247 297.0272 -9015.3102 -7313.5941 303.8687 -283.7707 -254.7751 29734.7405 -325.5086 -278.3859
ENERGY: 900000 2.4892 12.4285 3.9578 0.0000 -10608.3154 1550.5692 0.0000 0.0000 1752.5953 -7286.2755 303.7004 -9038.8707 -7318.2954 302.1515 1153.5333 1207.4661 29723.4716 -111.2265 -60.5316
ENERGY: 1200000 3.7394 12.4562 4.7066 0.0000 -10431.2819 1378.1335 0.0000 0.0000 1625.4325 -7406.8138 281.6649 -9032.2462 -7328.9759 299.6617 -209.6707 -145.4067 29377.8441 -190.8090 -135.1062
ENERGY: 1500000 2.4159 12.7476 4.9838 0.0000 -10453.0330 1419.1930 0.0000 0.0000 1725.1896 -7288.5031 298.9514 -9013.6927 -7328.0846 299.4073 176.6327 254.0323 29843.2316 -127.7381 -70.6467
TCL: Running FEP window   9: Lambda1 0.39999999999999997 Lambda2 0.44999999999999996 [dLambda 0.04999999999999999]
TCL: Setting parameter firsttimestep to 0
TCL: Setting parameter alchLambda to 0.39999999999999997
Info: NONBONDED TABLE R-SQUARED SPACING: 0.0625
Info: NONBONDED TABLE SIZE: 705 POINTS
TCL: Setting parameter alchLambda2 to 0.44999999999999996
Info: NONBONDED TABLE R-SQUARED SPACING: 0.0625
Info: NONBONDED TABLE SIZE: 705 POINTS
TCL: Running for 1500000 steps
ETITLE: TS BOND ANGLE DIHED IMPRP ELECT VDW BOUNDARY MISC KINETIC TOTAL TEMP POTENTIAL TOTALAVG TEMPAVG PRESSURE GPRESSURE VOLUME PRESSAVG GPRESSAVG
ENERGY: 0 2.4159 12.7476 4.9838 0.0000 -10453.0335 1419.4214 0.0000 0.0000 1724.3367 -7289.1281 298.8036 -9013.4649 -7289.1281 298.8036 176.8768 266.8347 29843.2316 176.8768 266.8347
ENERGY: 300000 5.5481 11.7162 6.3486 0.0000 -10430.9745 1402.6221 0.0000 0.0000 1736.6899 -7268.0495 300.9443 -9004.7395 -7323.5837 300.0759 -80.8989 -9.8571 29833.0781 19.1349 78.9982
ENERGY: 600000 1.3725 16.0843 3.2495 0.0000 -10473.4002 1428.8019 0.0000 0.0000 1705.2203 -7318.6717 295.4910 -9023.8920 -7336.8198 296.7463 -13.1389 100.9634 29969.3365 24.8534 85.1239
ENERGY: 900000 6.7751 12.4455 4.0872 0.0000 -10441.4277 1439.4307 0.0000 0.0000 1755.7040 -7222.9853 304.2391 -8978.6892 -7314.1632 298.7485 328.0180 389.4638 29790.7849 118.8966 177.0368
ENERGY: 1200000 1.4604 13.3606 3.7359 0.0000 -10439.5518 1332.8054 0.0000 0.0000 1769.7606 -7318.4290 306.6749 -9088.1896 -7315.1495 300.1521 -476.8127 -346.7383 29230.0496 3.4855 70.9894
ENERGY: 1500000 4.4699 13.4155 5.9837 0.0000 -10380.3924 1407.6777 0.0000 0.0000 1708.7812 -7240.0643 296.1081 -8948.8455 -7306.9627 299.9601 24.0355 110.5966 30016.2411 73.3250 137.9490
TCL: Running FEP window  10: Lambda1 0.44999999999999996 Lambda2 0.49999999999999994 [dLambda 0.04999999999999999]
TCL: Setting parameter firsttimestep to 0
TCL: Setting parameter alchLambda to 0.44999999999999996
Info: NONBONDED TABLE R-SQUARED SPACING: 0.0625
Info: NONBONDED TABLE SIZE: 705 POINTS
TCL: Setting parameter alchLambda2 to 0.49999999999999994
Info: NONBONDED TABLE R-SQUARED SPACING: 0.0625
Info: NONBONDED TABLE SIZE: 705 POINTS
TCL: Running for 1500000 steps
ETITLE: TS BOND ANGLE DIHED IMPRP ELECT VDW BOUNDARY MISC KINETIC TOTAL TEMP POTENTIAL TOTALAVG TEMPAVG PRESSURE GPRESSURE VOLUME PRESSAVG GPRESSAVG
ENERGY: 0 4.4699 13.4155 5.9837 0.0000 -10380.3953 1408.4085 0.0000 0.0000 1707.9240 -7240.1936 295.9595 -8948.1177 -7240.1936 295.9595 32.5254 122.0520 30016.2411 32.5254 122.0520
ENERGY: 300000 2.1900 5.7223 2.8757 0.0000 -10448.3579 1391.0734 0.0000 0.0000 1699.1552 -7347.3413 294.4400 -9046.4965 -7283.9916 296.4273 -189.3358 -91.4526 29629.0438 -117.0692 -40.1274
ENERGY: 600000 1.4943 16.5576 3.8104 0.0000 -10416.7367 1387.0096 0.0000 0.0000 1702.5767 -7305.2880 295.0329 -9007.8647 -7281.8165 297.2597 3.0583 50.0646 29464.8982 -6.2557 62.4309
ENERGY: 900000 4.0608 9.6823 5.2589 0.0000 -10354.1548 1316.4598 0.0000 0.0000 1699.9069 -7318.7861 294.5703 -9018.6929 -7284.9593 297.7930 -1260.4143 -1115.0892 30389.4120 -78.5429 -12.4125
ENERGY: 1200000 2.0329 10.8717 6.7385 0.0000 -10585.0383 1483.0046 0.0000 0.0000 1749.6378 -7332.7528 303.1879 -9082.3906 -7291.3806 298.6930 441.3461 596.9430 29440.8132 42.7431 116.6795
ENERGY: 1500000 0.8026 8.9591 5.0862 0.0000 -10343.6602 1324.1053 0.0000 0.0000 1731.8061 -7272.9009 300.0980 -9004.7070 -7293.0111 298.6475 -693.0483 -694.9785 30221.2871 -64.2001 1.5975
TCL: Running FEP window  11: Lambda1 0.49999999999999994 Lambda2 0.5499999999999999 [dLambda 0.04999999999999999]
TCL: Setting parameter firsttimestep to 0
TCL: Setting parameter alchLambda to 0.49999999999999994
Info: NONBONDED TABLE R-SQUARED SPACING: 0.0625
Info: NONBONDED TABLE SIZE: 705 POINTS
TCL: Setting parameter alchLambda2 to 0.5499999999999999
Info: NONBONDED TABLE R-SQUARED SPACING: 0.0625
Info: NONBONDED TABLE SIZE: 705 POINTS
TCL: Running for 1500000 steps
ETITLE: TS BOND ANGLE DIHED IMPRP ELECT VDW BOUNDARY MISC KINETIC TOTAL TEMP POTENTIAL TOTALAVG TEMPAVG PRESSURE GPRESSURE VOLUME PRESSAVG GPRESSAVG
ENERGY: 0 0.8025 8.9591 5.0862 0.0000 -10343.6593 1323.4639 0.0000 0.0000 1730.9353 -7274.4124 299.9471 -9005.3476 -7274.4124 299.9471 -779.1134 -693.6698 30221.2871 -779.1134 -693.6698
ENERGY: 300000 1.5149 15.0828 2.8908 0.0000 -10402.8423 1384.6670 0.0000 0.0000 1748.1442 -7250.5426 302.9291 -8998.6869 -7267.5959 300.8399 10.0306 155.6824 29655.8048 5.3022 94.7308
ENERGY: 600000 1.3650 11.6052 4.5364 0.0000 -10545.8562 1437.2519 0.0000 0.0000 1745.5077 -7345.5901 302.4723 -9091.0978 -7295.3448 301.0568 170.7520 259.3162 29650.5422 80.7336 166.5292
ENERGY: 900000 0.4278 10.5775 3.8596 0.0000 -10488.1989 1388.8187 0.0000 0.0000 1720.7978 -7363.7175 298.1904 -9084.5153 -7296.5262 300.6228 -347.2929 -241.9970 29990.4174 -70.1794 5.1508
ENERGY: 1200000 2.9739 15.6904 6.4711 0.0000 -10415.1692 1396.2368 0.0000 0.0000 1698.5763 -7295.2206 294.3397 -8993.7969 -7291.6108 300.5487 152.1615 203.4946 29122.4212 -72.8111 -7.5637
ENERGY: 1500000 3.4707 14.1985 3.6737 0.0000 -10407.7128 1390.6801 0.0000 0.0000 1716.2066 -7279.4832 297.3948 -8995.6898 -7296.3416 300.1527 44.3806 52.1003 29565.3260 -9.8731 54.1769
TCL: Running FEP window  12: Lambda1 0.5499999999999999 Lambda2 0.6    [dLambda 0.050000000000000044]
TCL: Setting parameter firsttimestep to 0
TCL: Setting parameter alchLambda to 0.5499999999999999
Info: NONBONDED TABLE R-SQUARED SPACING: 0.0625
Info: NONBONDED TABLE SIZE: 705 POINTS
TCL: Setting parameter alchLambda2 to 0.6
Info: NONBONDED TABLE R-SQUARED SPACING: 0.0625
Info: NONBONDED TABLE SIZE: 705 POINTS
TCL: Running for 1500000 steps
ETITLE: TS BOND ANGLE DIHED IMPRP ELECT VDW BOUNDARY MISC KINETIC TOTAL TEMP POTENTIAL TOTALAVG TEMPAVG PRESSURE GPRESSURE VOLUME PRESSAVG GPRESSAVG
ENERGY: 0 3.4707 14.1985 3.6737 0.0000 -10407.7304 1391.2237 0.0000 0.0000 1715.3918 -7279.7720 297.2536 -8995.1638 -7279.7720 297.2536 -24.0900 67.6786 29565.3260 -24.0900 67.6786
ENERGY: 300000 3.2123 14.9333 3.7358 0.0000 -10436.1337 1350.0697 0.0000 0.0000 1737.4286 -7326.7539 301.0723 -9064.1826 -7324.5280 298.2880 -500.1907 -542.7614 29895.5154 10.0688 75.7617
ENERGY: 600000 2.7703 12.3241 6.0434 0.0000 -10504.6369 1390.2682 0.0000 0.0000 1705.0435 -7388.1874 295.4604 -9093.2309 -7348.0142 298.4932 -246.0370 -143.5506 29376.2430 -265.7623 -179.6203
ENERGY: 900000 2.4159 10.1295 4.4138 0.0000 -10476.1455 1392.1011 0.0000 0.0000 1738.3255 -7328.7597 301.2277 -9067.0852 -7333.6662 300.3606 -243.6487 -231.4077 29960.7081 -265.6254 -197.9537
ENERGY: 1200000 1.6034 12.3179 4.3202 0.0000 -10498.4311 1502.8722 0.0000 0.0000 1714.7518 -7262.5655 297.1427 -8977.3174 -7309.9104 300.2847 864.4409 957.9673 29844.2646 -194.6297 -126.3126
ENERGY: 1500000 1.9098 12.8415 5.3030 0.0000 -10387.8022 1362.2404 0.0000 0.0000 1697.3663 -7308.1412 294.1300 -9005.5076 -7303.4218 300.5320 -282.8118 -218.6502 29875.1564 -247.7170 -181.3391
TCL: Running FEP window  13: Lambda1 0.6    Lambda2 0.65   [dLambda 0.050000000000000044]
TCL: Setting parameter firsttimestep to 0
TCL: Setting parameter alchLambda to 0.6
Info: NONBONDED TABLE R-SQUARED SPACING: 0.0625
Info: NONBONDED TABLE SIZE: 705 POINTS
TCL: Setting parameter alchLambda2 to 0.65
Info: NONBONDED TABLE R-SQUARED SPACING: 0.0625
Info: NONBONDED TABLE SIZE: 705 POINTS
TCL: Running for 1500000 steps
ETITLE: TS BOND ANGLE DIHED IMPRP ELECT VDW BOUNDARY MISC KINETIC TOTAL TEMP POTENTIAL TOTALAVG TEMPAVG PRESSURE GPRESSURE VOLUME PRESSAVG GPRESSAVG
ENERGY: 0 1.9098 12.8415 5.3030 0.0000 -10387.8041 1362.6276 0.0000 0.0000 1696.4639 -7308.6583 293.9736 -9005.1222 -7308.6583 293.9736 -287.1451 -201.1367 29875.1564 -287.1451 -201.1367
ENERGY: 300000 0.8563 15.7614 6.0252 0.0000 -10337.0185 1334.4966 0.0000 0.0000 1742.6704 -7237.2086 301.9806 -8979.8790 -7283.6014 300.9177 -583.7253 -506.2182 29956.6013 -199.2604 -125.7312
ENERGY: 600000 2.6780 10.4869 6.0000 0.0000 -10470.4190 1386.7432 0.0000 0.0000 1759.3602 -7305.1506 304.8727 -9064.5109 -7299.2231 299.0782 -380.6493 -336.8795 30113.1438 -210.7778 -152.3519
ENERGY: 900000 1.0846 13.6453 5.4633 0.0000 -10480.9991 1403.1648 0.0000 0.0000 1722.6454 -7334.9957 298.5105 -9057.6411 -7300.0833 299.4387 -105.1937 -74.2784 29847.1124 -142.6441 -86.6983
ENERGY: 1200000 2.8316 11.6459 6.8254 0.0000 -10495.9738 1405.6018 0.0000 0.0000 1707.8949 -7361.1741 295.9545 -9069.0690 -7304.4035 298.9152 -81.1604 -47.7569 29619.1548 -153.4553 -96.2129
ENERGY: 1500000 1.6738 12.0048 4.2092 0.0000 -10528.6213 1432.8335 0.0000 0.0000 1786.8460 -7291.0540 309.6356 -9077.9000 -7310.5124 300.2524 116.6348 139.1707 29808.8578 -118.0472 -62.4331
TCL: Running FEP window  14: Lambda1 0.65   Lambda2 0.7000000000000001 [dLambda 0.050000000000000044]
TCL: Setting parameter firsttimestep to 0
TCL: Setting parameter alchLambda to 0.65
Info: NONBONDED TABLE R-SQUARED SPACING: 0.0625
Info: NONBONDED TABLE SIZE: 705 POINTS
TCL: Setting parameter alchLambda2 to 0.7000000000000001
Info: NONBONDED TABLE R-SQUARED SPACING: 0.0625
Info: NONBONDED TABLE SIZE: 705 POINTS
TCL: Running for 1500000 steps
ETITLE: TS BOND ANGLE DIHED IMPRP ELECT VDW BOUNDARY MISC KINETIC TOTAL TEMP POTENTIAL TOTALAVG TEMPAVG PRESSURE GPRESSURE VOLUME PRESSAVG GPRESSAVG
ENERGY: 0 1.6738 12.0048 4.2092 0.0000 -10528.6189 1432.8370 0.0000 0.0000 1785.9676 -7291.9266 309.4834 -9077.8942 -7291.9266 309.4834 69.9307 150.0074 29808.8578 69.9307 150.0074
ENERGY: 300000 1.9208 16.8248 3.4254 0.0000 -10299.2308 1374.0031 0.0000 0.0000 1738.0657 -7164.9909 301.1827 -8903.0566 -7232.8758 304.9185 37.1521 107.6578 30029.4920 -181.1428 -88.2430
ENERGY: 600000 2.4986 9.3547 5.4265 0.0000 -10479.9492 1410.8331 0.0000 0.0000 1716.8487 -7334.9875 297.5060 -9051.8363 -7273.3285 302.1022 -5.0055 68.0237 29796.4366 -134.2736 -62.7430
ENERGY: 900000 3.3904 15.2883 3.1785 0.0000 -10582.3218 1471.4223 0.0000 0.0000 1799.5048 -7289.5374 311.8292 -9089.0422 -7285.3803 303.0236 756.6808 799.2713 29125.7953 115.2555 187.8175
ENERGY: 1200000 1.1050 12.8070 7.5849 0.0000 -10478.6747 1392.0085 0.0000 0.0000 1696.3043 -7368.8652 293.9460 -9065.1694 -7298.6384 301.3282 -115.5863 -57.2909 29594.6832 71.8514 143.1966
ENERGY: 1500000 1.2633 15.0523 4.4949 0.0000 -10420.0387 1339.1170 0.0000 0.0000 1665.7824 -7394.3287 288.6570 -9060.1111 -7309.4171 300.2531 -726.5643 -657.5608 29832.9077 51.0210 120.0382
TCL: Running FEP window  15: Lambda1 0.7000000000000001 Lambda2 0.7500000000000001 [dLambda 0.050000000000000044]
TCL: Setting parameter firsttimestep to 0
TCL: Setting parameter alchLambda to 0.7000000000000001
Info: NONBONDED TABLE R-SQUARED SPACING: 0.0625
Info: NONBONDED TABLE SIZE: 705 POINTS
TCL: Setting parameter alchLambda2 to 0.7500000000000001
Info: NONBONDED TABLE R-SQUARED SPACING: 0.0625
Info: NONBONDED TABLE SIZE: 705 POINTS
TCL: Running for 1500000 steps
ETITLE: TS BOND ANGLE DIHED IMPRP ELECT VDW BOUNDARY MISC KINETIC TOTAL TEMP POTENTIAL TOTALAVG TEMPAVG PRESSURE GPRESSURE VOLUME PRESSAVG GPRESSAVG
ENERGY: 0 1.2633 15.0523 4.4949 0.0000 -10420.0195 1339.4654 0.0000 0.0000 1664.9140 -7394.8296 288.5065 -9059.7435 -7394.8296 288.5065 -727.4600 -639.2287 29832.9077 -727.4600 -639.2287
ENERGY: 300000 2.4311 11.7746 6.3673 0.0000 -10478.0818 1402.9002 0.0000 0.0000 1745.3112 -7309.2973 302.4382 -9054.6086 -7350.7502 296.6399 -76.1605 11.3033 29552.6805 -96.5063 -32.8153
ENERGY: 600000 4.4676 11.5958 3.4013 0.0000 -10526.1991 1434.2290 0.0000 0.0000 1776.5531 -7295.9523 307.8520 -9072.5054 -7322.5102 298.8895 125.3609 215.4116 29984.0288 -70.3179 3.5543
ENERGY: 900000 1.4772 7.7088 5.0766 0.0000 -10640.0762 1499.4503 0.0000 0.0000 1770.7448 -7355.6184 306.8455 -9126.3632 -7304.8621 301.5746 778.2850 850.8062 29217.4907 63.8656 130.8491
ENERGY: 1200000 3.2463 12.0967 3.3800 0.0000 -10366.7208 1382.3476 0.0000 0.0000 1720.3713 -7245.2790 298.1165 -8965.6503 -7298.8157 301.8163 -393.3375 -313.3239 30630.4234 -0.0370 69.7823
ENERGY: 1500000 0.7520 11.8403 4.4984 0.0000 -10514.8847 1424.5853 0.0000 0.0000 1775.6252 -7297.5834 307.6912 -9073.2087 -7304.5984 301.6144 189.3207 241.1744 29746.3798 126.9307 190.9177
TCL: Running FEP window  16: Lambda1 0.7500000000000001 Lambda2 0.8000000000000002 [dLambda 0.050000000000000044]
TCL: Setting parameter firsttimestep to 0
TCL: Setting parameter alchLambda to 0.7500000000000001
Info: NONBONDED TABLE R-SQUARED SPACING: 0.0625
Info: NONBONDED TABLE SIZE: 705 POINTS
TCL: Setting parameter alchLambda2 to 0.8000000000000002
Info: NONBONDED TABLE R-SQUARED SPACING: 0.0625
Info: NONBONDED TABLE SIZE: 705 POINTS
TCL: Running for 1500000 steps
ETITLE: TS BOND ANGLE DIHED IMPRP ELECT VDW BOUNDARY MISC KINETIC TOTAL TEMP POTENTIAL TOTALAVG TEMPAVG PRESSURE GPRESSURE VOLUME PRESSAVG GPRESSAVG
ENERGY: 0 0.7520 11.8403 4.4984 0.0000 -10514.8094 1425.2700 0.0000 0.0000 1774.7566 -7297.6921 307.5407 -9072.4487 -7297.6921 307.5407 185.6784 264.1912 29746.3798 185.6784 264.1912
ENERGY: 300000 4.9755 10.6744 3.7185 0.0000 -10463.9109 1427.1414 0.0000 0.0000 1779.3557 -7238.0455 308.3376 -9017.4012 -7266.7069 306.6256 279.4741 332.4849 29615.0619 175.8073 230.7514
ENERGY: 600000 2.1241 8.3506 9.6613 0.0000 -10393.2218 1408.6780 0.0000 0.0000 1710.3855 -7254.0223 296.3861 -8964.4078 -7266.1740 303.1686 232.9831 322.4798 29599.0078 137.3274 196.7328
ENERGY: 900000 2.9859 17.9216 5.2048 0.0000 -10301.4456 1303.2929 0.0000 0.0000 1779.0058 -7193.0345 308.2770 -8972.0403 -7262.0464 304.3982 -782.0826 -772.5256 30133.1901 44.3564 89.2489
ENERGY: 1200000 2.4451 10.1310 4.6906 0.0000 -10437.5875 1392.6327 0.0000 0.0000 1736.5571 -7291.1310 300.9212 -9027.6881 -7266.6526 303.9796 -181.0770 -147.4319 30135.3931 123.5768 169.5501
ENERGY: 1500000 2.6635 12.7366 5.2091 0.0000 -10495.5941 1453.3189 0.0000 0.0000 1750.1506 -7271.5155 303.2768 -9021.6660 -7276.6738 303.2573 495.1853 505.4771 29599.9317 107.0228 153.3734
TCL: Running FEP window  17: Lambda1 0.8000000000000002 Lambda2 0.8500000000000002 [dLambda 0.050000000000000044]
TCL: Setting parameter firsttimestep to 0
TCL: Setting parameter alchLambda to 0.8000000000000002
Info: NONBONDED TABLE R-SQUARED SPACING: 0.0625
Info: NONBONDED TABLE SIZE: 705 POINTS
TCL: Setting parameter alchLambda2 to 0.8500000000000002
Info: NONBONDED TABLE R-SQUARED SPACING: 0.0625
Info: NONBONDED TABLE SIZE: 705 POINTS
TCL: Running for 1500000 steps
ETITLE: TS BOND ANGLE DIHED IMPRP ELECT VDW BOUNDARY MISC KINETIC TOTAL TEMP POTENTIAL TOTALAVG TEMPAVG PRESSURE GPRESSURE VOLUME PRESSAVG GPRESSAVG
ENERGY: 0 2.6635 12.7366 5.2091 0.0000 -10495.6071 1453.0304 0.0000 0.0000 1749.2863 -7272.6812 303.1270 -9021.9675 -7272.6812 303.1270 424.4501 511.3436 29599.9317 424.4501 511.3436
ENERGY: 300000 2.9654 11.9394 4.8619 0.0000 -10363.9598 1370.7850 0.0000 0.0000 1737.1329 -7236.2752 301.0210 -8973.4081 -7291.0383 301.9909 -326.2743 -326.9493 30258.3318 223.1630 239.9546
ENERGY: 600000 4.3442 10.7163 6.2974 0.0000 -10544.5079 1449.8944 0.0000 0.0000 1747.1146 -7326.1411 302.7507 -9073.2557 -7308.3867 299.9944 107.9725 164.0379 29651.0192 83.2639 119.5804
ENERGY: 900000 0.8460 10.0410 3.9825 0.0000 -10499.8809 1468.6568 0.0000 0.0000 1724.9494 -7291.4052 298.9098 -9016.3546 -7312.9702 299.1930 326.0089 362.3396 30333.9404 131.7839 170.0851
ENERGY: 1200000 1.3790 19.4552 11.1232 0.0000 -10190.1125 1281.0750 0.0000 0.0000 1759.2155 -7117.8646 304.8476 -8877.0801 -7299.7346 300.0135 -792.3864 -699.0882 30240.3900 74.7186 134.0393
ENERGY: 1500000 2.4303 14.4173 4.3653 0.0000 -10438.7357 1350.6995 0.0000 0.0000 1738.8657 -7327.9576 301.3213 -9066.8233 -7295.7296 300.4858 -618.2451 -551.0613 29796.4336 2.9257 56.0224
TCL: Running FEP window  18: Lambda1 0.8500000000000002 Lambda2 0.9000000000000002 [dLambda 0.050000000000000044]
TCL: Setting parameter firsttimestep to 0
TCL: Setting parameter alchLambda to 0.8500000000000002
Info: NONBONDED TABLE R-SQUARED SPACING: 0.0625
Info: NONBONDED TABLE SIZE: 705 POINTS
TCL: Setting parameter alchLambda2 to 0.9000000000000002
Info: NONBONDED TABLE R-SQUARED SPACING: 0.0625
Info: NONBONDED TABLE SIZE: 705 POINTS
TCL: Running for 1500000 steps
ETITLE: TS BOND ANGLE DIHED IMPRP ELECT VDW BOUNDARY MISC KINETIC TOTAL TEMP POTENTIAL TOTALAVG TEMPAVG PRESSURE GPRESSURE VOLUME PRESSAVG GPRESSAVG
ENERGY: 0 2.4303 14.4173 4.3653 0.0000 -10438.7150 1351.1094 0.0000 0.0000 1738.0093 -7328.3833 301.1729 -9066.3926 -7328.3833 301.1729 -617.7546 -529.1171 29796.4336 -617.7546 -529.1171
ENERGY: 300000 2.1428 16.4409 5.2724 0.0000 -10343.5741 1354.1540 0.0000 0.0000 1775.5916 -7189.9723 307.6854 -8965.5640 -7260.2299 303.6775 -153.1155 -116.9801 30115.7201 -71.9934 -10.7257
ENERGY: 600000 6.3431 8.6047 4.0107 0.0000 -10432.9563 1400.2498 0.0000 0.0000 1682.7679 -7330.9801 291.6003 -9013.7480 -7275.7811 302.9592 -412.2736 -321.2961 30034.7512 -91.7208 -26.6114
ENERGY: 900000 3.2094 9.1883 5.9230 0.0000 -10402.8940 1331.8603 0.0000 0.0000 1741.4982 -7311.2148 301.7775 -9052.7130 -7276.0751 303.2866 -725.6199 -680.2576 29863.7409 -71.2575 -5.7663
ENERGY: 1200000 2.1504 17.3420 3.2174 0.0000 -10465.7620 1370.1940 0.0000 0.0000 1742.7560 -7330.1021 301.9954 -9072.8581 -7281.3196 302.6646 -545.4255 -465.9983 29973.0104 -35.8526 25.8429
ENERGY: 1500000 3.9711 12.9715 3.6598 0.0000 -10517.7138 1423.6937 0.0000 0.0000 1730.9001 -7342.5176 299.9410 -9073.4177 -7286.4766 302.7776 353.6123 393.5873 29454.8979 58.1789 115.4517
TCL: Running FEP window  19: Lambda1 0.9000000000000002 Lambda2 0.9500000000000003 [dLambda 0.050000000000000044]
TCL: Setting parameter firsttimestep to 0
TCL: Setting parameter alchLambda to 0.9000000000000002
Info: NONBONDED TABLE R-SQUARED SPACING: 0.0625
Info: NONBONDED TABLE SIZE: 705 POINTS
TCL: Setting parameter alchLambda2 to 0.9500000000000003
Info: NONBONDED TABLE R-SQUARED SPACING: 0.0625
Info: NONBONDED TABLE SIZE: 705 POINTS
TCL: Running for 1500000 steps
ETITLE: TS BOND ANGLE DIHED IMPRP ELECT VDW BOUNDARY MISC KINETIC TOTAL TEMP POTENTIAL TOTALAVG TEMPAVG PRESSURE GPRESSURE VOLUME PRESSAVG GPRESSAVG
ENERGY: 0 3.9710 12.9715 3.6598 0.0000 -10517.7244 1422.8733 0.0000 0.0000 1730.0160 -7344.2328 299.7878 -9074.2487 -7344.2328 299.7878 326.3004 400.8092 29454.8979 326.3004 400.8092
ENERGY: 300000 2.8788 8.2308 4.7735 0.0000 -10203.1005 1291.2431 0.0000 0.0000 1795.2582 -7100.7161 311.0933 -8895.9743 -7270.3474 300.5847 -378.8311 -328.4979 29828.7139 105.4398 171.4456
ENERGY: 600000 1.8973 9.9804 2.6150 0.0000 -10467.3226 1380.9218 0.0000 0.0000 1664.9473 -7406.9607 288.5123 -9071.9081 -7318.1450 297.9351 -285.7507 -169.1784 29699.4895 29.8262 116.1949
ENERGY: 900000 3.3074 14.4481 4.4561 0.0000 -10412.9272 1383.1291 0.0000 0.0000 1720.3406 -7287.2458 298.1112 -9007.5865 -7320.5400 297.6043 -403.7102 -303.4903 30007.4042 6.6487 78.1833
ENERGY: 1200000 1.4112 12.1210 4.6719 0.0000 -10356.7058 1328.9044 0.0000 0.0000 1736.8297 -7272.7676 300.9685 -9009.5973 -7307.0579 298.4376 -846.3450 -797.2031 30614.5013 -44.7862 22.6078
ENERGY: 1500000 1.5584 10.8355 3.8124 0.0000 -10550.8666 1440.8481 0.0000 0.0000 1773.7484 -7320.0637 307.3660 -9093.8121 -7312.5068 299.0364 554.3501 615.4347 29403.2545 -78.4271 -11.6492
TCL: Running FEP window  20: Lambda1 0.9500000000000003 Lambda2 1.0    [dLambda 0.04999999999999971]
TCL: Setting parameter firsttimestep to 0
TCL: Setting parameter alchLambda to 0.9500000000000003
Info: NONBONDED TABLE R-SQUARED SPACING: 0.0625
Info: NONBONDED TABLE SIZE: 705 POINTS
TCL: Setting parameter alchLambda2 to 1.0
Info: NONBONDED TABLE R-SQUARED SPACING: 0.0625
Info: NONBONDED TABLE SIZE: 705 POINTS
TCL: Running for 1500000 steps
ETITLE: TS BOND ANGLE DIHED IMPRP ELECT VDW BOUNDARY MISC KINETIC TOTAL TEMP POTENTIAL TOTALAVG TEMPAVG PRESSURE GPRESSURE VOLUME PRESSAVG GPRESSAVG
ENERGY: 0 1.5584 10.8355 3.8124 0.0000 -10550.8901 1440.4490 0.0000 0.0000 1772.8640 -7321.3707 307.2127 -9094.2348 -7321.3707 307.2127 540.5235 626.5314 29403.2545 540.5235 626.5314
ENERGY: 300000 1.3944 16.3110 6.2708 0.0000 -10385.4082 1342.8179 0.0000 0.0000 1746.2706 -7272.3434 302.6045 -9018.6141 -7293.2963 300.9594 -200.9337 -219.7326 29699.5021 96.7563 118.4727
ENERGY: 600000 2.9569 9.2475 2.7613 0.0000 -10480.8540 1369.3972 0.0000 0.0000 1689.7890 -7406.7022 292.8170 -9096.4912 -7320.8234 298.7742 -430.4561 -387.7268 29600.1546 -54.7820 -4.9231
ENERGY: 900000 2.6498 13.3484 6.4171 0.0000 -10592.8868 1460.6078 0.0000 0.0000 1677.3866 -7432.4771 290.6678 -9109.8637 -7333.2903 298.7381 170.8252 236.9332 29968.3306 -118.3628 -67.3304
ENERGY: 1200000 4.2830 16.4472 3.2242 0.0000 -10369.7119 1317.7543 0.0000 0.0000 1814.0921 -7213.9111 314.3570 -9028.0032 -7315.5731 301.0480 -860.0677 -814.1272 30277.7513 -261.5902 -210.9836
ENERGY: 1500000 0.5155 14.4617 3.6257 0.0000 -10416.1240 1367.7228 0.0000 0.0000 1745.4544 -7284.3439 302.4630 -9029.7983 -7315.2899 299.6264 -215.8532 -214.9264 30132.2174 -258.9036 -214.1027
TCL: Exiting due to exit command.
