Info: SIMULATION PARAMETERS:
Info: TIMESTEP               2
Info: NUMBER OF STEPS        0
Info: STEPS PER CYCLE        10
Info: PERIODIC CELL BASIS 1  32.4194 0 0
Info: PERIODIC CELL BASIS 2  0 29.1147 0
Info: PERIODIC CELL BASIS 3  0 0 32.0712
Info: PERIODIC CELL CENTER   0 0 0
Info: WRAPPING WATERS AROUND PERIODIC BOUNDARIES ON OUTPUT.
Info: WRAPPING ALL CLUSTERS AROUND PERIODIC BOUNDARIES ON OUTPUT.
Info: FIRST LDB TIMESTEP     50
Info: LAST LDB TIMESTEP     -1
Info: HOM BACKGROUND SCALING 1
Info: PME BACKGROUND SCALING 1
Info: MIN ATOMS PER PATCH    40
Info: EMPTY PATCH LOAD       40 ATOMS
Info: VELOCITY FILE          mobley_5079234_equil.vel
Info: CENTER OF MASS MOVING INITIALLY? NO
Info: DIELECTRIC             1
Info: EXCLUDE                SCALED ONE-FOUR
Info: 1-4 ELECTROSTATICS SCALED BY 0.833333
Info: MODIFIED 1-4 VDW PARAMETERS WILL BE USED
Info: DCD FILENAME           mobley_5079234_prod.dcd
Info: DCD FREQUENCY          100000
Info: DCD FIRST STEP         100000
Info: DCD FILE WILL CONTAIN UNIT CELL DATA
Info: XST FILENAME           mobley_5079234_prod.xst
Info: XST FREQUENCY          100000
Info: NO VELOCITY DCD OUTPUT
Info: NO FORCE DCD OUTPUT
Info: OUTPUT FILENAME        mobley_5079234_prod
Info: BINARY OUTPUT FILES WILL BE USED
Info: RESTART FILENAME       mobley_5079234_prod.restart
Info: RESTART FREQUENCY      100000
Info: BINARY RESTART FILES WILL BE USED
Info: CUTOFF                 9
Info: PAIRLIST DISTANCE      11
Info: PAIRLIST SHRINK RATE   0.01
Info: PAIRLIST GROW RATE     0.01
Info: PAIRLIST TRIGGER       0.3
Info: PAIRLISTS PER CYCLE    2
Info: PAIRLISTS ENABLED
Info: MARGIN                 2
Info: HYDROGEN GROUP CUTOFF  2.5
Info: PATCH DIMENSION        15.5
Info: ENERGY OUTPUT STEPS    100000
Info: ENERGY EVALUATION STEPS    100000
Info: OUTPUT ENERGY PRECISION 4
Info: CROSSTERM ENERGY INCLUDED IN DIHEDRAL
Info: TIMING OUTPUT STEPS    1000000
Info: PRESSURE OUTPUT STEPS  100000
Info: ALCHEMICAL FEP ON
Info: FEP CURRENT LAMBDA VALUE     1
Info: FEP COMPARISON LAMBDA VALUE  0.95
Info: FEP INTRA-ALCHEMICAL NON-BONDED INTERACTIONS WILL BE RETAINED
Info: FEP INTRA-ALCHEMICAL BONDED INTERACTIONS WILL BE RETAINED
Info: FEP VDW SHIFTING COEFFICIENT 5
Info: FEP ELEC. ACTIVE FOR ANNIHILATED PARTICLES BETWEEN LAMBDA = 0 AND LAMBDA = 0.5
Info: FEP ELEC. ACTIVE FOR EXNIHILATED PARTICLES BETWEEN LAMBDA = 0.5 AND LAMBDA = 1
Info: FEP VDW ACTIVE FOR ANNIHILATED PARTICLES BETWEEN LAMBDA = 0 AND LAMBDA = 1
Info: FEP VDW ACTIVE FOR EXNIHILATED PARTICLES BETWEEN LAMBDA = 0 AND LAMBDA = 1
Info: FEP BOND ACTIVE FOR ANNIHILATED PARTICLES BETWEEN LAMBDA = 1 AND LAMBDA = 1
Info: FEP BOND ACTIVE FOR EXNIHILATED PARTICLES BETWEEN LAMBDA = 0 AND LAMBDA = 0
Info: LANGEVIN DYNAMICS ACTIVE
Info: LANGEVIN TEMPERATURE   300
Info: LANGEVIN USING BBK INTEGRATOR
Info: LANGEVIN DAMPING COEFFICIENT IS 1 INVERSE PS
Info: LANGEVIN DYNAMICS APPLIED TO HYDROGENS
Info: LANGEVIN PISTON PRESSURE CONTROL ACTIVE
Info:        TARGET PRESSURE IS 1.01325 BAR
Info:     OSCILLATION PERIOD IS 50 FS
Info:             DECAY TIME IS 25 FS
Info:     PISTON TEMPERATURE IS 300 K
Info:       PRESSURE CONTROL IS GROUP-BASED
Info:    INITIAL STRAIN RATE IS -0.000799888 -0.000799888 -0.000799888
Info:       CELL FLUCTUATION IS ISOTROPIC
Info: PARTICLE MESH EWALD (PME) ACTIVE
Info: PME TOLERANCE               1e-06
Info: PME EWALD COEFFICIENT       0.348832
Info: PME INTERPOLATION ORDER     4
Info: PME GRID DIMENSIONS         36 32 36
Info: PME MAXIMUM GRID SPACING    1
Info: PME CALCULATION WILL BE PERFORMED ON GPU
Info: FULL ELECTROSTATIC EVALUATION FREQUENCY      2
Info: USING VERLET I (r-RESPA) MTS SCHEME.
Info: C1 SPLITTING OF LONG RANGE ELECTROSTATICS
Info: PLACING ATOMS IN PATCHES BY HYDROGEN GROUPS
Info: RIGID BONDS TO HYDROGEN : ALL
Info:         ERROR TOLERANCE : 1e-08
Info:          MAX ITERATIONS : 100
Info: RIGID WATER USING SETTLE ALGORITHM
Info: RANDOM NUMBER SEED     1744022013
Info: USE HYDROGEN BONDS?    NO
Info: Using AMBER format force field!
Info: AMBER PARM FILE        mobley_5079234.prmtop
Info: COORDINATE PDB         mobley_5079234.pdb
Info: Exclusions will be read from PARM file!
Info: SCNB (VDW SCALING)     2
Info: USING ARITHMETIC MEAN TO COMBINE L-J SIGMA PARAMETERS
Info: BINARY COORDINATES     mobley_5079234_equil.coor
Info: SUMMARY OF PARAMETERS:
Info: 7 BONDS
Info: 8 ANGLES
Info:   8 HARMONIC
Info:   0 COSINE-BASED
Info: 9 DIHEDRAL
Info: 0 IMPROPER
Info: 0 CROSSTERM
Info: 0 VDW
Info: 21 VDW_PAIRS
Info: 0 NBTHOLE_PAIRS
Info: To read alchdata from file: mobley_5079234.pdb
Info: To read alchflag data from column: 5
Info: STRUCTURE SUMMARY:
Info: 2937 ATOMS
Info: 2936 BONDS
Info: 43 ANGLES
Info: 68 DIHEDRALS
Info: 0 IMPROPERS
Info: 0 CROSSTERMS
Info: 3036 EXCLUSIONS
Info: 2929 RIGID BONDS
Info: ALCH: 0 ATOMS TO DISAPPEAR IN FINAL STATE
Info: ALCH: 24 ATOMS TO APPEAR IN FINAL STATE
Info: 5882 DEGREES OF FREEDOM
Info: 979 HYDROGEN GROUPS
Info: 4 ATOMS IN LARGEST HYDROGEN GROUP
Info: 979 MIGRATION GROUPS
Info: 4 ATOMS IN LARGEST MIGRATION GROUP
Info: TOTAL MASS = 17609.7 amu
Info: TOTAL CHARGE = -0.000200018 e
Info: MASS DENSITY = 0.966006 g/cm^3
Info: ATOM DENSITY = 0.0970223 atoms/A^3
Info: ADDED 0 IMPLICIT EXCLUSIONS
Info: NONBONDED TABLE R-SQUARED SPACING: 0.0625
Info: NONBONDED TABLE SIZE: 705 POINTS
Info: REMOVING COM VELOCITY 0.139007 -0.00792021 -0.0921931
Info: Use 3D box decompostion in PME FFT.
Info: Updated CUDA force table with 4096 elements.
Info: Updated CUDA LJ table with 6 x 6 elements.
Info: Found 27 unique exclusion lists needing 88 bytes
TCL: Running for 1500000 steps
ETITLE: TS BOND ANGLE DIHED IMPRP ELECT VDW BOUNDARY MISC KINETIC TOTAL TEMP POTENTIAL TOTALAVG TEMPAVG PRESSURE GPRESSURE VOLUME PRESSAVG GPRESSAVG
ENERGY: 0 2.0405 9.1302 4.1965 0.0000 -10588.4524 1437.5231 0.0000 0.0000 1757.0375 -7378.5246 300.6397 -9135.5621 -7378.5246 300.6397 168.4050 258.8986 30271.3951 168.4050 258.8986
ENERGY: 300000 0.7156 15.1022 4.4254 0.0000 -10594.6365 1478.1647 0.0000 0.0000 1795.7487 -7300.4798 307.2635 -9096.2285 -7356.3156 304.4180 620.6672 678.4449 30372.0373 52.4261 113.0451
ENERGY: 600000 2.6431 9.2147 4.5230 0.0000 -10495.9175 1318.3859 0.0000 0.0000 1742.4714 -7418.6795 298.1474 -9161.1508 -7368.4900 304.4636 -769.4830 -700.0650 30454.2471 64.5724 125.7051
ENERGY: 900000 1.9895 7.3922 6.9963 0.0000 -10415.0181 1344.4502 0.0000 0.0000 1754.5847 -7299.6051 300.2201 -9054.1899 -7369.2162 301.9540 -510.1576 -460.7265 31169.7684 -153.6323 -99.5612
ENERGY: 1200000 2.6774 11.8211 6.3433 0.0000 -10591.9217 1418.5951 0.0000 0.0000 1755.3550 -7397.1300 300.3519 -9152.4849 -7380.6555 302.5786 -97.4068 -7.2236 30293.9682 -94.7942 -36.3874
ENERGY: 1500000 4.1218 13.9134 5.2561 0.0000 -10696.1321 1486.2724 0.0000 0.0000 1737.4611 -7449.1073 297.2901 -9186.5683 -7377.2297 302.1725 177.5193 160.6562 30635.0767 -133.0864 -87.3891
TCL: Running FEP window   2: Lambda1 0.95   Lambda2 0.8999999999999999 [dLambda -0.050000000000000044]
TCL: Setting parameter firsttimestep to 0
TCL: Setting parameter alchLambda to 0.95
Info: NONBONDED TABLE R-SQUARED SPACING: 0.0625
Info: NONBONDED TABLE SIZE: 705 POINTS
TCL: Setting parameter alchLambda2 to 0.8999999999999999
Info: NONBONDED TABLE R-SQUARED SPACING: 0.0625
Info: NONBONDED TABLE SIZE: 705 POINTS
TCL: Running for 1500000 steps
ETITLE: TS BOND ANGLE DIHED IMPRP ELECT VDW BOUNDARY MISC KINETIC TOTAL TEMP POTENTIAL TOTALAVG TEMPAVG PRESSURE GPRESSURE VOLUME PRESSAVG GPRESSAVG
ENERGY: 0 4.1218 13.9134 5.2561 0.0000 -10694.6049 1485.4192 0.0000 0.0000 1736.5782 -7449.3161 297.1390 -9185.8944 -7449.3161 297.1390 65.0396 139.1867 30635.0767 65.0396 139.1867
ENERGY: 300000 0.5708 12.7246 2.9316 0.0000 -10553.8165 1426.8867 0.0000 0.0000 1699.6555 -7411.0472 290.8213 -9110.7027 -7426.2777 297.3646 133.8030 207.0279 30268.8943 282.7431 332.3326
ENERGY: 600000 1.8989 13.9459 4.3813 0.0000 -10386.1958 1238.6998 0.0000 0.0000 1801.1840 -7326.0858 308.1935 -9127.2699 -7404.0824 300.2612 -1208.2498 -1137.2311 30302.8206 34.2904 81.9360
ENERGY: 900000 1.8028 8.9972 3.9673 0.0000 -10603.6357 1397.5321 0.0000 0.0000 1757.0885 -7434.2477 300.6485 -9191.3362 -7426.0247 299.3578 -124.5140 -42.5343 30012.7938 80.8903 140.3797
ENERGY: 1200000 1.4972 8.0565 2.8930 0.0000 -10468.6057 1299.8419 0.0000 0.0000 1783.3705 -7372.9466 305.1455 -9156.3171 -7419.9053 299.3719 -1044.8961 -1046.4377 30758.7410 -22.8209 39.9831
ENERGY: 1500000 3.9973 7.3598 4.1371 0.0000 -10604.6795 1436.4551 0.0000 0.0000 1772.6953 -7380.0351 303.3189 -9152.7303 -7418.2654 299.3568 -46.6620 -22.0890 30713.6910 -4.0692 55.0311
TCL: Running FEP window   3: Lambda1 0.8999999999999999 Lambda2 0.8499999999999999 [dLambda -0.050000000000000044]
TCL: Setting parameter firsttimestep to 0
TCL: Setting parameter alchLambda to 0.8999999999999999
Info: NONBONDED TABLE R-SQUARED SPACING: 0.0625
Info: NONBONDED TABLE SIZE: 705 POINTS
TCL: Setting parameter alchLambda2 to 0.8499999999999999
Info: NONBONDED TABLE R-SQUARED SPACING: 0.0625
Info: NONBONDED TABLE SIZE: 705 POINTS
TCL: Running for 1500000 steps
ETITLE: TS BOND ANGLE DIHED IMPRP ELECT VDW BOUNDARY MISC KINETIC TOTAL TEMP POTENTIAL TOTALAVG TEMPAVG PRESSURE GPRESSURE VOLUME PRESSAVG GPRESSAVG
ENERGY: 0 3.9973 7.3598 4.1371 0.0000 -10602.6314 1435.5655 0.0000 0.0000 1771.7804 -7379.7913 303.1623 -9151.5717 -7379.7913 303.1623 -129.3887 -45.0142 30713.6910 -129.3887 -45.0142
ENERGY: 300000 5.1302 9.0872 3.7818 0.0000 -10595.4968 1425.9910 0.0000 0.0000 1788.9855 -7362.5212 306.1062 -9151.5067 -7389.1578 301.1681 -228.7603 -186.6077 30356.0569 -522.9376 -472.1904
ENERGY: 600000 0.7697 7.8536 3.6599 0.0000 -10529.5104 1354.3680 0.0000 0.0000 1829.5916 -7333.2676 313.0542 -9162.8591 -7396.1261 304.0984 -547.7369 -419.0406 30354.1829 -363.6620 -298.0240
ENERGY: 900000 3.0554 18.0152 5.1148 0.0000 -10639.8921 1361.7382 0.0000 0.0000 1725.1897 -7526.7789 295.1904 -9251.9686 -7412.6414 302.3554 -720.8666 -692.8373 30090.7068 -392.1868 -324.6549
ENERGY: 1200000 1.4527 9.4363 6.1428 0.0000 -10532.8718 1381.5228 0.0000 0.0000 1695.6387 -7438.6785 290.1340 -9134.3172 -7409.0955 300.7412 -316.3678 -217.3998 30301.8735 -300.9425 -233.8853
ENERGY: 1500000 2.8127 12.4168 4.1644 0.0000 -10622.1248 1450.0272 0.0000 0.0000 1779.7564 -7372.9472 304.5271 -9152.7036 -7403.9593 301.0615 292.6007 348.3765 29940.8746 -195.9999 -131.8538
TCL: Running FEP window   4: Lambda1 0.8499999999999999 Lambda2 0.7999999999999998 [dLambda -0.050000000000000044]
TCL: Setting parameter firsttimestep to 0
TCL: Setting parameter alchLambda to 0.8499999999999999
Info: NONBONDED TABLE R-SQUARED SPACING: 0.0625
Info: NONBONDED TABLE SIZE: 705 POINTS
TCL: Setting parameter alchLambda2 to 0.7999999999999998
Info: NONBONDED TABLE R-SQUARED SPACING: 0.0625
Info: NONBONDED TABLE SIZE: 705 POINTS
TCL: Running for 1500000 steps
ETITLE: TS BOND ANGLE DIHED IMPRP ELECT VDW BOUNDARY MISC KINETIC TOTAL TEMP POTENTIAL TOTALAVG TEMPAVG PRESSURE GPRESSURE VOLUME PRESSAVG GPRESSAVG
ENERGY: 0 2.8127 12.4168 4.1644 0.0000 -10620.9259 1450.3959 0.0000 0.0000 1778.8551 -7372.2809 304.3729 -9151.1360 -7372.2809 304.3729 263.1763 343.6197 29940.8746 263.1763 343.6197
ENERGY: 300000 2.3795 9.7521 5.3641 0.0000 -10563.5757 1474.4301 0.0000 0.0000 1786.0445 -7285.6055 305.6030 -9071.6499 -7375.0976 301.2595 523.1709 593.6997 30193.9957 464.0780 545.9855
ENERGY: 600000 3.7114 11.1012 5.9046 0.0000 -10595.9444 1456.1168 0.0000 0.0000 1685.1894 -7433.9210 288.3461 -9119.1104 -7376.5947 299.4476 23.2892 54.5557 30668.2562 295.6421 369.4549
ENERGY: 900000 2.0376 13.8889 3.6855 0.0000 -10610.0875 1392.5118 0.0000 0.0000 1783.8006 -7414.1631 305.2191 -9197.9637 -7393.4436 299.8794 -302.4425 -213.9110 29987.5293 264.5076 331.8768
ENERGY: 1200000 4.7988 8.3556 6.0872 0.0000 -10632.7214 1450.8385 0.0000 0.0000 1754.5308 -7408.1105 300.2108 -9162.6413 -7396.2365 299.6533 142.2513 232.4161 30102.4350 114.0832 186.1230
ENERGY: 1500000 1.1321 11.6552 5.1451 0.0000 -10563.5561 1403.5375 0.0000 0.0000 1766.1816 -7375.9046 302.2044 -9142.0862 -7401.7274 298.8972 -110.1979 -22.7605 30283.5780 68.6682 139.0762
TCL: Running FEP window   5: Lambda1 0.7999999999999998 Lambda2 0.7499999999999998 [dLambda -0.050000000000000044]
TCL: Setting parameter firsttimestep to 0
TCL: Setting parameter alchLambda to 0.7999999999999998
Info: NONBONDED TABLE R-SQUARED SPACING: 0.0625
Info: NONBONDED TABLE SIZE: 705 POINTS
TCL: Setting parameter alchLambda2 to 0.7499999999999998
Info: NONBONDED TABLE R-SQUARED SPACING: 0.0625
Info: NONBONDED TABLE SIZE: 705 POINTS
TCL: Running for 1500000 steps
ETITLE: TS BOND ANGLE DIHED IMPRP ELECT VDW BOUNDARY MISC KINETIC TOTAL TEMP POTENTIAL TOTALAVG TEMPAVG PRESSURE GPRESSURE VOLUME PRESSAVG GPRESSAVG
ENERGY: 0 1.1321 11.6552 5.1451 0.0000 -10562.4255 1402.9783 0.0000 0.0000 1765.3043 -7376.2105 302.0542 -9141.5148 -7376.2105 302.0542 -123.0167 -39.0928 30283.5780 -123.0167 -39.0928
ENERGY: 300000 1.6861 15.3469 4.5603 0.0000 -10498.8206 1336.9874 0.0000 0.0000 1786.1397 -7354.1001 305.6193 -9140.2398 -7378.5379 303.7835 -430.4438 -367.1885 29790.1833 -103.7293 -44.8161
ENERGY: 600000 1.1884 7.9630 4.8580 0.0000 -10546.1648 1352.2384 0.0000 0.0000 1749.5135 -7430.4035 299.3523 -9179.9170 -7405.3187 301.0218 -538.7354 -462.8411 30199.0754 28.8108 80.8828
ENERGY: 900000 2.0851 7.1977 7.3127 0.0000 -10610.8943 1437.6153 0.0000 0.0000 1773.0832 -7383.6004 303.3853 -9156.6835 -7397.3255 300.8470 304.9043 316.8720 30116.3591 -46.6810 14.1929
ENERGY: 1200000 4.5879 10.3479 4.2084 0.0000 -10619.0703 1376.9227 0.0000 0.0000 1744.3470 -7478.6564 298.4683 -9223.0034 -7401.1192 301.0685 -429.3952 -383.7153 30028.1613 -157.6756 -94.6467
ENERGY: 1500000 2.2840 14.9133 5.0291 0.0000 -10637.0113 1463.4260 0.0000 0.0000 1749.0678 -7402.2910 299.2761 -9151.3588 -7393.4654 301.0916 681.3411 798.3125 29644.9992 -145.9634 -78.5496
TCL: Running FEP window   6: Lambda1 0.7499999999999998 Lambda2 0.6999999999999997 [dLambda -0.050000000000000044]
TCL: Setting parameter firsttimestep to 0
TCL: Setting parameter alchLambda to 0.7499999999999998
Info: NONBONDED TABLE R-SQUARED SPACING: 0.0625
Info: NONBONDED TABLE SIZE: 705 POINTS
TCL: Setting parameter alchLambda2 to 0.6999999999999997
Info: NONBONDED TABLE R-SQUARED SPACING: 0.0625
Info: NONBONDED TABLE SIZE: 705 POINTS
TCL: Running for 1500000 steps
ETITLE: TS BOND ANGLE DIHED IMPRP ELECT VDW BOUNDARY MISC KINETIC TOTAL TEMP POTENTIAL TOTALAVG TEMPAVG PRESSURE GPRESSURE VOLUME PRESSAVG GPRESSAVG
ENERGY: 0 2.2840 14.9133 5.0291 0.0000 -10636.2265 1463.2282 0.0000 0.0000 1748.1865 -7402.5853 299.1253 -9150.7718 -7402.5853 299.1253 680.7563 785.8026 29644.9992 680.7563 785.8026
ENERGY: 300000 4.2162 10.1430 5.3187 0.0000 -10434.7678 1362.6700 0.0000 0.0000 1797.4598 -7254.9602 307.5562 -9052.4200 -7382.5018 298.6590 -284.8362 -220.9252 30151.8645 21.3713 99.3850
ENERGY: 600000 1.5484 7.8149 5.2427 0.0000 -10602.0990 1450.7322 0.0000 0.0000 1782.7876 -7353.9731 305.0457 -9136.7607 -7396.9759 298.7631 235.1634 234.3322 30514.9361 45.5679 97.3435
ENERGY: 900000 0.8394 13.2243 4.1657 0.0000 -10781.7022 1461.9078 0.0000 0.0000 1711.6298 -7589.9352 292.8702 -9301.5650 -7398.9980 300.2364 -82.9483 -47.9500 29969.3604 49.6143 99.4467
ENERGY: 1200000 1.4471 12.6109 4.4177 0.0000 -10771.6378 1568.9725 0.0000 0.0000 1785.1200 -7399.0696 305.4448 -9184.1896 -7401.2253 300.6911 1197.6600 1284.9131 29855.3799 139.4015 194.7179
ENERGY: 1500000 1.7262 11.8847 3.1721 0.0000 -10646.9002 1470.4726 0.0000 0.0000 1740.3000 -7419.3446 297.7759 -9159.6446 -7410.4862 300.7261 342.7874 465.9152 30268.6632 140.2437 203.0794
TCL: Running FEP window   7: Lambda1 0.6999999999999997 Lambda2 0.6499999999999997 [dLambda -0.050000000000000044]
TCL: Setting parameter firsttimestep to 0
TCL: Setting parameter alchLambda to 0.6999999999999997
Info: NONBONDED TABLE R-SQUARED SPACING: 0.0625
Info: NONBONDED TABLE SIZE: 705 POINTS
TCL: Setting parameter alchLambda2 to 0.6499999999999997
Info: NONBONDED TABLE R-SQUARED SPACING: 0.0625
Info: NONBONDED TABLE SIZE: 705 POINTS
TCL: Running for 1500000 steps
ETITLE: TS BOND ANGLE DIHED IMPRP ELECT VDW BOUNDARY MISC KINETIC TOTAL TEMP POTENTIAL TOTALAVG TEMPAVG PRESSURE GPRESSURE VOLUME PRESSAVG GPRESSAVG
ENERGY: 0 1.7262 11.8847 3.1721 0.0000 -10645.2257 1469.3233 0.0000 0.0000 1739.3696 -7419.7499 297.6167 -9159.1195 -7419.7499 297.6167 369.3691 447.4905 30268.6632 369.3691 447.4905
ENERGY: 300000 0.7264 6.1835 5.9255 0.0000 -10652.5302 1423.3129 0.0000 0.0000 1808.6990 -7407.6830 309.4793 -9216.3820 -7403.4898 300.8148 -146.5243 -73.1167 30185.9015 -101.1407 -29.8843
ENERGY: 600000 4.8869 15.8230 6.3381 0.0000 -10752.0235 1477.4980 0.0000 0.0000 1763.6435 -7483.8340 301.7701 -9247.4775 -7402.6034 301.7722 -79.1529 -35.3938 30111.0775 -165.0815 -97.9346
ENERGY: 900000 1.6692 7.1845 4.6120 0.0000 -10564.9756 1372.5833 0.0000 0.0000 1772.4385 -7406.4881 303.2749 -9178.9266 -7398.1351 301.8901 -339.9906 -286.9294 30151.8056 -153.0983 -87.0589
ENERGY: 1200000 0.7070 11.6015 4.3861 0.0000 -10657.2344 1412.0691 0.0000 0.0000 1693.4856 -7534.9851 289.7656 -9228.4707 -7412.6904 300.6053 -328.3018 -259.8870 29927.4686 -199.3809 -137.9172
ENERGY: 1500000 1.1625 11.9259 5.3545 0.0000 -10731.7441 1524.4357 0.0000 0.0000 1827.9704 -7360.8950 312.7768 -9188.8654 -7411.6279 301.0900 824.0257 825.0231 29971.0493 18.5893 74.7100
TCL: Running FEP window   8: Lambda1 0.6499999999999997 Lambda2 0.5999999999999996 [dLambda -0.050000000000000044]
TCL: Setting parameter firsttimestep to 0
TCL: Setting parameter alchLambda to 0.6499999999999997
Info: NONBONDED TABLE R-SQUARED SPACING: 0.0625
Info: NONBONDED TABLE SIZE: 705 POINTS
TCL: Setting parameter alchLambda2 to 0.5999999999999996
Info: NONBONDED TABLE R-SQUARED SPACING: 0.0625
Info: NONBONDED TABLE SIZE: 705 POINTS
TCL: Running for 1500000 steps
ETITLE: TS BOND ANGLE DIHED IMPRP ELECT VDW BOUNDARY MISC KINETIC TOTAL TEMP POTENTIAL TOTALAVG TEMPAVG PRESSURE GPRESSURE VOLUME PRESSAVG GPRESSAVG
ENERGY: 0 1.1625 11.9259 5.3545 0.0000 -10730.1682 1524.6385 0.0000 0.0000 1827.1045 -7359.9822 312.6286 -9187.0867 -7359.9822 312.6286 742.3403 822.7254 29971.0493 742.3403 822.7254
ENERGY: 300000 2.0734 8.9735 6.1825 0.0000 -10564.9731 1363.2346 0.0000 0.0000 1756.3884 -7428.1206 300.5287 -9184.5091 -7382.1962 304.3006 -729.5631 -706.9404 30556.2668 -153.1416 -106.9905
ENERGY: 600000 2.0859 10.4249 5.4682 0.0000 -10669.1656 1428.4568 0.0000 0.0000 1752.4742 -7470.2556 299.8589 -9222.7298 -7382.7532 302.4904 -194.1550 -62.1541 30156.3579 -53.8101 14.9411
ENERGY: 900000 2.2688 11.7122 3.2815 0.0000 -10592.9480 1381.7398 0.0000 0.0000 1757.6882 -7436.2574 300.7511 -9193.9457 -7396.7362 300.7963 -303.1722 -258.5953 30103.9608 -126.3708 -66.4958
ENERGY: 1200000 2.5668 15.6599 4.4253 0.0000 -10558.1280 1376.2050 0.0000 0.0000 1783.4962 -7375.7749 305.1670 -9159.2711 -7414.4436 300.1615 -452.8885 -331.2423 30195.7798 -140.4584 -77.4041
ENERGY: 1500000 2.4332 14.2639 5.0351 0.0000 -10386.8987 1218.0881 0.0000 0.0000 1816.9415 -7330.1369 310.8897 -9147.0784 -7404.6144 301.0826 -1719.4840 -1693.6954 30667.0262 -241.1154 -178.0481
TCL: Running FEP window   9: Lambda1 0.5999999999999996 Lambda2 0.5499999999999996 [dLambda -0.050000000000000044]
TCL: Setting parameter firsttimestep to 0
TCL: Setting parameter alchLambda to 0.5999999999999996
Info: NONBONDED TABLE R-SQUARED SPACING: 0.0625
Info: NONBONDED TABLE SIZE: 705 POINTS
TCL: Setting parameter alchLambda2 to 0.5499999999999996
Info: NONBONDED TABLE R-SQUARED SPACING: 0.0625
Info: NONBONDED TABLE SIZE: 705 POINTS
TCL: Running for 1500000 steps
ETITLE: TS BOND ANGLE DIHED IMPRP ELECT VDW BOUNDARY MISC KINETIC TOTAL TEMP POTENTIAL TOTALAVG TEMPAVG PRESSURE GPRESSURE VOLUME PRESSAVG GPRESSAVG
ENERGY: 0 2.4332 14.2639 5.0351 0.0000 -10386.7982 1218.3224 0.0000 0.0000 1816.0872 -7330.6564 310.7435 -9146.7436 -7330.6564 310.7435 -1775.2871 -1701.1958 30667.0262 -1775.2871 -1701.1958
ENERGY: 300000 1.6902 17.6923 4.7378 0.0000 -10565.8527 1392.5463 0.0000 0.0000 1708.7709 -7440.4152 292.3810 -9149.1861 -7400.1034 298.8643 -93.3680 2.8908 29657.1046 -602.8251 -510.4722
ENERGY: 600000 1.8681 10.1356 4.0983 0.0000 -10682.8013 1460.8027 0.0000 0.0000 1854.4699 -7351.4266 317.3110 -9205.8965 -7374.1743 302.6753 579.7443 611.4115 29576.4168 -18.3042 53.4613
ENERGY: 900000 1.2245 8.9616 3.7182 0.0000 -10467.1006 1359.8436 0.0000 0.0000 1665.0696 -7428.2830 284.9035 -9093.3526 -7376.3718 300.6684 -158.6603 -136.9436 30009.8318 -83.3589 -21.2132
ENERGY: 1200000 0.7270 9.8642 4.6036 0.0000 -10590.9591 1438.6946 0.0000 0.0000 1739.8268 -7397.2429 297.6949 -9137.0697 -7390.9440 300.1763 -132.2387 -41.5967 30704.7269 -107.6607 -42.7902
ENERGY: 1500000 2.4304 10.0220 4.6953 0.0000 -10622.3254 1448.2247 0.0000 0.0000 1719.8166 -7437.1364 294.2710 -9156.9530 -7391.2042 300.2251 8.5863 103.3574 30435.1340 -139.1719 -79.8714
TCL: Running FEP window  10: Lambda1 0.5499999999999996 Lambda2 0.4999999999999996 [dLambda -0.04999999999999999]
TCL: Setting parameter firsttimestep to 0
TCL: Setting parameter alchLambda to 0.5499999999999996
Info: NONBONDED TABLE R-SQUARED SPACING: 0.0625
Info: NONBONDED TABLE SIZE: 705 POINTS
TCL: Setting parameter alchLambda2 to 0.4999999999999996
Info: NONBONDED TABLE R-SQUARED SPACING: 0.0625
Info: NONBONDED TABLE SIZE: 705 POINTS
TCL: Running for 1500000 steps
ETITLE: TS BOND ANGLE DIHED IMPRP ELECT VDW BOUNDARY MISC KINETIC TOTAL TEMP POTENTIAL TOTALAVG TEMPAVG PRESSURE GPRESSURE VOLUME PRESSAVG GPRESSAVG
ENERGY: 0 2.4304 10.0220 4.6953 0.0000 -10622.2693 1448.5210 0.0000 0.0000 1718.9357 -7437.6649 294.1203 -9156.6006 -7437.6649 294.1203 16.9978 97.9223 30435.1340 16.9978 97.9223
ENERGY: 300000 4.5917 11.8407 6.0954 0.0000 -10501.0696 1338.7900 0.0000 0.0000 1771.1202 -7368.6317 303.0494 -9139.7519 -7434.4708 296.2483 -743.0155 -710.1234 30190.1165 -428.7381 -364.2306
ENERGY: 600000 1.8623 14.0256 3.8613 0.0000 -10538.1959 1362.7397 0.0000 0.0000 1763.1391 -7392.5680 301.6838 -9155.7070 -7406.8396 299.6479 -338.9147 -349.5065 30247.6714 -363.1332 -301.6253
ENERGY: 900000 2.4090 11.5920 4.4972 0.0000 -10565.1454 1430.4777 0.0000 0.0000 1750.5874 -7365.5820 299.5361 -9116.1694 -7404.8084 299.7592 423.0110 464.8648 29888.8908 -322.4800 -262.2408
ENERGY: 1200000 2.4485 11.5516 4.8238 0.0000 -10697.9586 1461.8193 0.0000 0.0000 1748.3488 -7468.9666 299.1531 -9217.3154 -7411.3429 300.4426 724.7329 785.2078 29381.6851 -221.6976 -159.5633
ENERGY: 1500000 1.2703 6.5373 4.8609 0.0000 -10518.0949 1396.1922 0.0000 0.0000 1750.7549 -7358.4793 299.5648 -9109.2342 -7405.0154 300.5661 -7.9684 56.3820 30162.1862 -236.5173 -173.4777
TCL: Running FEP window  11: Lambda1 0.4999999999999996 Lambda2 0.4499999999999996 [dLambda -0.04999999999999999]
TCL: Setting parameter firsttimestep to 0
TCL: Setting parameter alchLambda to 0.4999999999999996
Info: NONBONDED TABLE R-SQUARED SPACING: 0.0625
Info: NONBONDED TABLE SIZE: 705 POINTS
TCL: Setting parameter alchLambda2 to 0.4499999999999996
Info: NONBONDED TABLE R-SQUARED SPACING: 0.0625
Info: NONBONDED TABLE SIZE: 705 POINTS
TCL: Running for 1500000 steps
ETITLE: TS BOND ANGLE DIHED IMPRP ELECT VDW BOUNDARY MISC KINETIC TOTAL TEMP POTENTIAL TOTALAVG TEMPAVG PRESSURE GPRESSURE VOLUME PRESSAVG GPRESSAVG
ENERGY: 0 1.2703 6.5373 4.8609 0.0000 -10518.4550 1395.6579 0.0000 0.0000 1749.9029 -7360.2257 299.4190 -9110.1286 -7360.2257 299.4190 -45.8215 41.2213 30162.1862 -45.8215 41.2213
ENERGY: 300000 2.9727 11.9801 6.0255 0.0000 -10607.5552 1470.9425 0.0000 0.0000 1723.8230 -7391.8114 294.9566 -9115.6344 -7397.9093 298.5120 355.7975 392.8607 30299.3413 14.4617 81.6732
ENERGY: 600000 2.2530 11.7299 5.0059 0.0000 -10600.2664 1377.3638 0.0000 0.0000 1734.1240 -7469.7898 296.7191 -9203.9138 -7420.6430 299.0659 -572.9959 -539.7673 30256.5896 -191.1079 -117.4022
ENERGY: 900000 2.5703 13.7095 4.0507 0.0000 -10610.2731 1483.6988 0.0000 0.0000 1793.3616 -7312.8821 306.8550 -9106.2437 -7411.3190 299.3182 557.3265 596.3872 30387.0746 -113.2844 -49.4650
ENERGY: 1200000 1.4495 12.0203 4.1709 0.0000 -10521.5697 1382.4124 0.0000 0.0000 1810.8051 -7310.7115 309.8397 -9121.5166 -7406.4710 300.0031 -231.3316 -173.7263 30175.5462 -137.9286 -83.2040
ENERGY: 1500000 0.5111 11.9539 4.4265 0.0000 -10740.3330 1496.5687 0.0000 0.0000 1749.6703 -7477.2026 299.3792 -9226.8729 -7418.7655 299.8546 622.8477 749.0191 29645.7383 -92.2844 -31.9954
TCL: Running FEP window  12: Lambda1 0.4499999999999996 Lambda2 0.39999999999999963 [dLambda -0.04999999999999999]
TCL: Setting parameter firsttimestep to 0
TCL: Setting parameter alchLambda to 0.4499999999999996
Info: NONBONDED TABLE R-SQUARED SPACING: 0.0625
Info: NONBONDED TABLE SIZE: 705 POINTS
TCL: Setting parameter alchLambda2 to 0.39999999999999963
Info: NONBONDED TABLE R-SQUARED SPACING: 0.0625
Info: NONBONDED TABLE SIZE: 705 POINTS
TCL: Running for 1500000 steps
ETITLE: TS BOND ANGLE DIHED IMPRP ELECT VDW BOUNDARY MISC KINETIC TOTAL TEMP POTENTIAL TOTALAVG TEMPAVG PRESSURE GPRESSURE VOLUME PRESSAVG GPRESSAVG
ENERGY: 0 0.5111 11.9539 4.4265 0.0000 -10740.3318 1496.8020 0.0000 0.0000 1748.8195 -7477.8189 299.2336 -9226.6384 -7477.8189 299.2336 661.9921 744.3670 29645.7383 661.9921 744.3670
ENERGY: 300000 1.9179 10.1783 3.8419 0.0000 -10614.0567 1438.6867 0.0000 0.0000 1770.3685 -7389.0632 302.9208 -9159.4318 -7448.7238 295.9939 6.5565 122.2411 30224.1322 171.3665 258.1772
ENERGY: 600000 1.6058 12.6260 5.2593 0.0000 -10648.0875 1452.6520 0.0000 0.0000 1777.4781 -7398.4662 304.1373 -9175.9443 -7438.6321 297.3969 252.6553 331.0128 29960.2358 217.2795 273.9564
ENERGY: 900000 1.1596 9.4729 5.4788 0.0000 -10577.0253 1421.0560 0.0000 0.0000 1782.4463 -7357.4117 304.9874 -9139.8581 -7421.1630 297.9481 -127.9342 -11.1202 30372.5244 134.8261 190.4896
ENERGY: 1200000 2.7171 9.8482 3.7423 0.0000 -10726.6915 1487.1240 0.0000 0.0000 1758.5321 -7464.7277 300.8955 -9223.2598 -7414.0492 298.7694 194.3875 220.4124 30223.9225 26.3808 83.1926
ENERGY: 1500000 4.7112 10.0126 4.6587 0.0000 -10705.9000 1471.6892 0.0000 0.0000 1761.4650 -7453.3633 301.3973 -9214.8283 -7401.8969 299.8717 162.3284 207.8017 30230.8388 36.3303 93.3848
TCL: Running FEP window  13: Lambda1 0.39999999999999963 Lambda2 0.34999999999999964 [dLambda -0.04999999999999999]
TCL: Setting parameter firsttimestep to 0
TCL: Setting parameter alchLambda to 0.39999999999999963
Info: NONBONDED TABLE R-SQUARED SPACING: 0.0625
Info: NONBONDED TABLE SIZE: 705 POINTS
TCL: Setting parameter alchLambda2 to 0.34999999999999964
Info: NONBONDED TABLE R-SQUARED SPACING: 0.0625
Info: NONBONDED TABLE SIZE: 705 POINTS
TCL: Running for 1500000 steps
ETITLE: TS BOND ANGLE DIHED IMPRP ELECT VDW BOUNDARY MISC KINETIC TOTAL TEMP POTENTIAL TOTALAVG TEMPAVG PRESSURE GPRESSURE VOLUME PRESSAVG GPRESSAVG
ENERGY: 0 4.7112 10.0126 4.6587 0.0000 -10705.8996 1471.6779 0.0000 0.0000 1760.6023 -7454.2369 301.2497 -9214.8392 -7454.2369 301.2497 113.4087 202.1042 30230.8388 113.4087 202.1042
ENERGY: 300000 1.8398 12.6279 4.7538 0.0000 -10617.6029 1417.5627 0.0000 0.0000 1805.7040 -7375.1147 308.9669 -9180.8188 -7437.6070 296.7999 -259.6947 -152.0264 30203.8784 -111.4787 -4.8287
ENERGY: 600000 2.0306 14.3119 4.2664 0.0000 -10612.2347 1455.9216 0.0000 0.0000 1839.1291 -7296.5751 314.6861 -9135.7042 -7400.1592 300.1336 449.8714 540.8497 29682.3911 -47.2435 34.5759
ENERGY: 900000 2.8317 7.0448 3.9514 0.0000 -10631.6122 1393.9607 0.0000 0.0000 1778.5956 -7445.2281 304.3285 -9223.8237 -7418.1152 298.6124 -489.1415 -450.4214 30288.0348 -91.2441 -13.5158
ENERGY: 1200000 2.1431 14.3845 3.8427 0.0000 -10647.1666 1461.7234 0.0000 0.0000 1738.3921 -7426.6808 297.4494 -9165.0729 -7413.2184 299.2172 148.3196 231.0189 30483.8131 -165.8455 -87.5358
ENERGY: 1500000 2.4808 12.5192 5.0724 0.0000 -10545.3287 1420.8835 0.0000 0.0000 1744.0043 -7360.3685 298.4097 -9104.3728 -7415.6206 298.9727 261.8510 325.0668 29803.9706 -161.5276 -92.0309
TCL: Running FEP window  14: Lambda1 0.34999999999999964 Lambda2 0.29999999999999966 [dLambda -0.04999999999999999]
TCL: Setting parameter firsttimestep to 0
TCL: Setting parameter alchLambda to 0.34999999999999964
Info: NONBONDED TABLE R-SQUARED SPACING: 0.0625
Info: NONBONDED TABLE SIZE: 705 POINTS
TCL: Setting parameter alchLambda2 to 0.29999999999999966
Info: NONBONDED TABLE R-SQUARED SPACING: 0.0625
Info: NONBONDED TABLE SIZE: 705 POINTS
TCL: Running for 1500000 steps
ETITLE: TS BOND ANGLE DIHED IMPRP ELECT VDW BOUNDARY MISC KINETIC TOTAL TEMP POTENTIAL TOTALAVG TEMPAVG PRESSURE GPRESSURE VOLUME PRESSAVG GPRESSAVG
ENERGY: 0 2.4808 12.5192 5.0724 0.0000 -10545.3286 1420.6536 0.0000 0.0000 1743.1528 -7361.4498 298.2640 -9104.6026 -7361.4498 298.2640 211.4930 315.9185 29803.9706 211.4930 315.9185
ENERGY: 300000 2.4091 9.6413 4.8134 0.0000 -10764.8167 1551.3412 0.0000 0.0000 1762.6616 -7433.9500 301.6021 -9196.6116 -7384.5818 299.8378 871.2626 922.5654 29952.2630 178.3910 248.9038
ENERGY: 600000 2.3308 13.0979 5.8682 0.0000 -10505.5180 1355.0406 0.0000 0.0000 1775.9659 -7353.2145 303.8785 -9129.1804 -7389.7676 300.9545 -796.9412 -718.4210 30441.6724 74.4745 131.9439
ENERGY: 900000 1.6580 14.1463 8.1634 0.0000 -10533.1609 1410.2110 0.0000 0.0000 1733.3395 -7365.6428 296.5849 -9098.9823 -7375.5049 300.6782 -25.9592 -2.5988 30249.3657 -87.4461 -28.4501
ENERGY: 1200000 2.2461 14.0512 4.7544 0.0000 -10597.8878 1503.1178 0.0000 0.0000 1787.2287 -7286.4896 305.8056 -9073.7183 -7363.3673 301.1800 1113.7527 1178.1844 29482.2900 -39.7703 13.1856
ENERGY: 1500000 1.8999 8.1498 2.9155 0.0000 -10694.5993 1492.9998 0.0000 0.0000 1778.5454 -7410.0888 304.3199 -9188.6342 -7374.6175 300.8621 378.9752 412.1857 30207.6085 -7.7010 38.1738
TCL: Running FEP window  15: Lambda1 0.29999999999999966 Lambda2 0.24999999999999967 [dLambda -0.04999999999999999]
TCL: Setting parameter firsttimestep to 0
TCL: Setting parameter alchLambda to 0.29999999999999966
Info: NONBONDED TABLE R-SQUARED SPACING: 0.0625
Info: NONBONDED TABLE SIZE: 705 POINTS
TCL: Setting parameter alchLambda2 to 0.24999999999999967
Info: NONBONDED TABLE R-SQUARED SPACING: 0.0625
Info: NONBONDED TABLE SIZE: 705 POINTS
TCL: Running for 1500000 steps
ETITLE: TS BOND ANGLE DIHED IMPRP ELECT VDW BOUNDARY MISC KINETIC TOTAL TEMP POTENTIAL TOTALAVG TEMPAVG PRESSURE GPRESSURE VOLUME PRESSAVG GPRESSAVG
ENERGY: 0 1.8999 8.1498 2.9155 0.0000 -10694.5985 1493.0303 0.0000 0.0000 1777.6640 -7410.9389 304.1691 -9188.6029 -7410.9389 304.1691 320.1473 403.9031 30207.6085 320.1473 403.9031
ENERGY: 300000 1.6467 14.3151 5.3798 0.0000 -10736.7590 1488.9457 0.0000 0.0000 1781.6306 -7444.8411 304.8478 -9226.4717 -7397.8435 298.5291 481.9711 561.2565 29753.9047 211.4948 270.3138
ENERGY: 600000 1.5295 9.8030 2.9677 0.0000 -10584.6285 1334.9074 0.0000 0.0000 1738.4595 -7496.9613 297.4609 -9235.4208 -7386.2800 300.0359 -846.5786 -803.4035 30049.9591 -69.0877 -18.6018
ENERGY: 900000 1.7774 10.7059 2.9483 0.0000 -10604.1728 1380.1644 0.0000 0.0000 1780.6005 -7427.9764 304.6715 -9208.5769 -7397.9208 299.9951 -488.2704 -435.1936 30166.2693 -49.2455 3.8548
ENERGY: 1200000 1.8127 7.8575 4.1934 0.0000 -10512.4519 1362.9180 0.0000 0.0000 1790.6390 -7345.0313 306.3892 -9135.6703 -7386.9575 301.2154 -667.9091 -489.3278 30078.6531 -136.4291 -70.2175
ENERGY: 1500000 1.4591 11.3202 3.7991 0.0000 -10590.2822 1398.1733 0.0000 0.0000 1770.2510 -7405.2796 302.9007 -9175.5305 -7393.0010 301.2828 -329.5317 -254.2663 29885.0106 -83.8121 -14.8644
TCL: Running FEP window  16: Lambda1 0.24999999999999967 Lambda2 0.19999999999999968 [dLambda -0.04999999999999999]
TCL: Setting parameter firsttimestep to 0
TCL: Setting parameter alchLambda to 0.24999999999999967
Info: NONBONDED TABLE R-SQUARED SPACING: 0.0625
Info: NONBONDED TABLE SIZE: 705 POINTS
TCL: Setting parameter alchLambda2 to 0.19999999999999968
Info: NONBONDED TABLE R-SQUARED SPACING: 0.0625
Info: NONBONDED TABLE SIZE: 705 POINTS
TCL: Running for 1500000 steps
ETITLE: TS BOND ANGLE DIHED IMPRP ELECT VDW BOUNDARY MISC KINETIC TOTAL TEMP POTENTIAL TOTALAVG TEMPAVG PRESSURE GPRESSURE VOLUME PRESSAVG GPRESSAVG
ENERGY: 0 1.4591 11.3202 3.7991 0.0000 -10590.2808 1398.3173 0.0000 0.0000 1769.3876 -7405.9976 302.7529 -9175.3852 -7405.9976 302.7529 -332.0672 -261.5344 29885.0106 -332.0672 -261.5344
ENERGY: 300000 1.9975 7.2911 4.4200 0.0000 -10772.4358 1544.5773 0.0000 0.0000 1784.7045 -7429.4454 305.3737 -9214.1499 -7400.2466 301.2467 866.0266 939.5832 29667.9954 245.2785 290.1357
ENERGY: 600000 2.2905 11.1355 4.7771 0.0000 -10656.2391 1468.6238 0.0000 0.0000 1774.1995 -7395.2128 303.5763 -9169.4123 -7394.5878 302.8301 154.6351 236.6999 30057.3153 72.8999 134.6968
ENERGY: 900000 2.0828 11.1108 3.9974 0.0000 -10647.5559 1405.3212 0.0000 0.0000 1724.1419 -7500.9018 295.0111 -9225.0437 -7415.3168 300.6677 -474.7277 -448.2094 30205.5911 -61.9124 -10.7576
ENERGY: 1200000 4.3383 11.6389 2.8801 0.0000 -10571.0788 1426.0964 0.0000 0.0000 1776.0468 -7350.0784 303.8924 -9126.1252 -7402.3841 301.6608 -236.3512 -164.3637 30397.0488 -162.2525 -109.6294
ENERGY: 1500000 2.6787 12.3897 9.1359 0.0000 -10528.1329 1359.8307 0.0000 0.0000 1717.5086 -7426.5894 293.8761 -9144.0979 -7407.3993 300.7173 -632.8250 -609.6249 30399.8111 -179.7458 -131.0848
TCL: Running FEP window  17: Lambda1 0.19999999999999968 Lambda2 0.1499999999999997 [dLambda -0.04999999999999999]
TCL: Setting parameter firsttimestep to 0
TCL: Setting parameter alchLambda to 0.19999999999999968
Info: NONBONDED TABLE R-SQUARED SPACING: 0.0625
Info: NONBONDED TABLE SIZE: 705 POINTS
TCL: Setting parameter alchLambda2 to 0.1499999999999997
Info: NONBONDED TABLE R-SQUARED SPACING: 0.0625
Info: NONBONDED TABLE SIZE: 705 POINTS
TCL: Running for 1500000 steps
ETITLE: TS BOND ANGLE DIHED IMPRP ELECT VDW BOUNDARY MISC KINETIC TOTAL TEMP POTENTIAL TOTALAVG TEMPAVG PRESSURE GPRESSURE VOLUME PRESSAVG GPRESSAVG
ENERGY: 0 2.6787 12.3897 9.1359 0.0000 -10528.1340 1359.7719 0.0000 0.0000 1716.6283 -7427.5296 293.7255 -9144.1579 -7427.5296 293.7255 -699.9774 -615.1640 30399.8111 -699.9774 -615.1640
ENERGY: 300000 0.9222 11.6912 6.6291 0.0000 -10655.6219 1418.3565 0.0000 0.0000 1773.6608 -7444.3622 303.4841 -9218.0230 -7398.8318 300.3453 -354.2697 -253.6906 29878.1169 -493.5496 -414.8994
ENERGY: 600000 0.8765 10.0460 4.8186 0.0000 -10536.8803 1397.1814 0.0000 0.0000 1744.7013 -7379.2565 298.5290 -9123.9578 -7405.6519 298.8477 -86.3609 -22.2951 30186.6738 -299.5245 -217.0603
ENERGY: 900000 1.2903 8.9865 3.6508 0.0000 -10554.2373 1381.7915 0.0000 0.0000 1725.5404 -7432.9778 295.2504 -9158.5182 -7410.3159 298.3046 -496.4229 -463.5872 30263.2537 -314.5035 -256.3410
ENERGY: 1200000 3.1098 11.3907 5.5082 0.0000 -10570.7092 1373.3242 0.0000 0.0000 1678.1461 -7499.2302 287.1409 -9177.3763 -7410.9193 299.1707 -608.1738 -464.1758 30195.4543 -402.7556 -339.4412
ENERGY: 1500000 4.4415 12.1407 3.8159 0.0000 -10572.8761 1492.4387 0.0000 0.0000 1774.6014 -7285.4379 303.6450 -9060.0393 -7399.5381 299.7130 793.2947 794.1010 30058.5148 -311.4259 -256.1262
TCL: Running FEP window  18: Lambda1 0.1499999999999997 Lambda2 0.09999999999999969 [dLambda -0.05 ]
TCL: Setting parameter firsttimestep to 0
TCL: Setting parameter alchLambda to 0.1499999999999997
Info: NONBONDED TABLE R-SQUARED SPACING: 0.0625
Info: NONBONDED TABLE SIZE: 705 POINTS
TCL: Setting parameter alchLambda2 to 0.09999999999999969
Info: NONBONDED TABLE R-SQUARED SPACING: 0.0625
Info: NONBONDED TABLE SIZE: 705 POINTS
TCL: Running for 1500000 steps
ETITLE: TS BOND ANGLE DIHED IMPRP ELECT VDW BOUNDARY MISC KINETIC TOTAL TEMP POTENTIAL TOTALAVG TEMPAVG PRESSURE GPRESSURE VOLUME PRESSAVG GPRESSAVG
ENERGY: 0 4.4415 12.1407 3.8159 0.0000 -10572.8756 1492.8499 0.0000 0.0000 1773.7807 -7285.8469 303.5046 -9059.6276 -7285.8469 303.5046 694.0314 793.5018 30058.5148 694.0314 793.5018
ENERGY: 300000 1.6835 8.9043 4.0821 0.0000 -10480.3769 1344.8886 0.0000 0.0000 1764.7327 -7356.0857 301.9564 -9120.8184 -7329.5958 302.9486 -534.9693 -514.4835 30027.3670 -63.2155 -10.1923
ENERGY: 600000 0.9913 10.5538 3.8453 0.0000 -10502.6218 1340.3869 0.0000 0.0000 1747.1697 -7399.6748 298.9513 -9146.8444 -7352.6488 302.8604 -393.4559 -292.8348 29788.1009 -157.4386 -96.6291
ENERGY: 900000 1.9248 12.1364 5.1027 0.0000 -10517.2177 1383.2192 0.0000 0.0000 1771.7387 -7343.0958 303.1552 -9114.8346 -7366.8071 301.9566 -376.6006 -328.2365 30266.4925 -280.3027 -208.2827
ENERGY: 1200000 4.1144 11.4455 6.3507 0.0000 -10619.6864 1360.4397 0.0000 0.0000 1707.8369 -7529.4991 292.2212 -9237.3360 -7391.5977 302.0781 -864.3937 -787.2438 29846.6585 -216.8949 -151.8705
ENERGY: 1500000 3.6999 12.7995 3.3495 0.0000 -10404.6170 1342.1708 0.0000 0.0000 1677.5425 -7365.0549 287.0377 -9042.5974 -7390.9561 301.7035 -545.4763 -428.9750 30056.8670 -185.8905 -120.0979
TCL: Running FEP window  19: Lambda1 0.09999999999999969 Lambda2 0.049999999999999684 [dLambda -0.05 ]
TCL: Setting parameter firsttimestep to 0
TCL: Setting parameter alchLambda to 0.09999999999999969
Info: NONBONDED TABLE R-SQUARED SPACING: 0.0625
Info: NONBONDED TABLE SIZE: 705 POINTS
TCL: Setting parameter alchLambda2 to 0.049999999999999684
Info: NONBONDED TABLE R-SQUARED SPACING: 0.0625
Info: NONBONDED TABLE SIZE: 705 POINTS
TCL: Running for 1500000 steps
ETITLE: TS BOND ANGLE DIHED IMPRP ELECT VDW BOUNDARY MISC KINETIC TOTAL TEMP POTENTIAL TOTALAVG TEMPAVG PRESSURE GPRESSURE VOLUME PRESSAVG GPRESSAVG
ENERGY: 0 3.6999 12.7995 3.3495 0.0000 -10404.6176 1342.8232 0.0000 0.0000 1676.6659 -7365.2797 286.8877 -9041.9456 -7365.2797 286.8877 -515.9668 -430.5002 30056.8670 -515.9668 -430.5002
ENERGY: 300000 3.7306 15.2176 5.1018 0.0000 -10570.7354 1388.5852 0.0000 0.0000 1752.7841 -7405.3162 299.9120 -9158.1002 -7422.4937 296.7437 -767.0831 -743.2115 30924.4404 -334.6380 -274.9186
ENERGY: 600000 1.3738 12.5370 5.0104 0.0000 -10657.3182 1422.7390 0.0000 0.0000 1788.8528 -7426.8053 306.0835 -9215.6581 -7395.0876 299.7725 -83.9434 -31.9127 29887.9803 -309.3706 -249.5184
ENERGY: 900000 3.0905 15.8458 4.9540 0.0000 -10551.1594 1413.9030 0.0000 0.0000 1776.0519 -7337.3141 303.8932 -9113.3660 -7395.8725 300.3920 232.3344 282.2783 29661.0010 -156.8845 -97.8702
ENERGY: 1200000 2.4486 13.4293 3.8196 0.0000 -10646.1807 1463.2197 0.0000 0.0000 1782.1894 -7381.0740 304.9434 -9163.2634 -7387.7566 301.6261 496.9081 583.9499 29704.7300 -61.3587 1.8076
ENERGY: 1500000 0.5996 7.9444 4.3273 0.0000 -10767.1894 1480.2653 0.0000 0.0000 1750.4763 -7523.5765 299.5171 -9274.0528 -7395.9348 300.7891 149.6815 146.0578 29859.5201 -96.8430 -43.5466
TCL: Running FEP window  20: Lambda1 0.049999999999999684 Lambda2 0.0    [dLambda -0.049999999999999684]
TCL: Setting parameter firsttimestep to 0
TCL: Setting parameter alchLambda to 0.049999999999999684
Info: NONBONDED TABLE R-SQUARED SPACING: 0.0625
Info: NONBONDED TABLE SIZE: 705 POINTS
TCL: Setting parameter alchLambda2 to 0.0
Info: NONBONDED TABLE R-SQUARED SPACING: 0.0625
Info: NONBONDED TABLE SIZE: 705 POINTS
TCL: Running for 1500000 steps
ETITLE: TS BOND ANGLE DIHED IMPRP ELECT VDW BOUNDARY MISC KINETIC TOTAL TEMP POTENTIAL TOTALAVG TEMPAVG PRESSURE GPRESSURE VOLUME PRESSAVG GPRESSAVG
ENERGY: 0 0.5996 7.9444 4.3273 0.0000 -10767.1898 1480.3929 0.0000 0.0000 1749.6101 -7524.3155 299.3689 -9273.9256 -7524.3155 299.3689 63.8209 145.3219 29859.5201 63.8209 145.3219
ENERGY: 300000 3.1435 12.1605 4.7963 0.0000 -10608.5608 1420.9807 0.0000 0.0000 1748.0508 -7419.4289 299.1021 -9167.4797 -7416.9070 300.5497 -206.1141 -52.3863 29883.3719 48.9409 131.7944
ENERGY: 600000 1.9159 14.0138 4.7372 0.0000 -10650.4700 1494.6193 0.0000 0.0000 1812.1404 -7323.0435 310.0682 -9135.1839 -7407.5359 300.6723 590.9665 659.9623 29958.3301 72.9273 134.9500
ENERGY: 900000 2.1545 8.7392 3.7168 0.0000 -10574.0141 1375.4086 0.0000 0.0000 1739.4593 -7444.5356 297.6320 -9183.9949 -7415.1094 300.0239 -533.5851 -489.6526 30099.8322 -74.9087 -5.8836
ENERGY: 1200000 0.8560 8.7205 3.5857 0.0000 -10549.4979 1381.1062 0.0000 0.0000 1759.4325 -7395.7970 301.0495 -9155.2295 -7406.0370 299.7683 -423.0181 -376.8326 30390.0202 -168.7417 -99.2501
ENERGY: 1500000 1.2579 10.7551 5.3221 0.0000 -10524.4501 1388.5373 0.0000 0.0000 1793.7766 -7324.8009 306.9260 -9118.5776 -7393.8989 300.3585 -153.1136 -55.8793 29957.1112 -273.6746 -200.8236
TCL: Exiting due to exit command.
