Info: SIMULATION PARAMETERS:
Info: TIMESTEP               2
Info: NUMBER OF STEPS        0
Info: STEPS PER CYCLE        10
Info: PERIODIC CELL BASIS 1  29.8752 0 0
Info: PERIODIC CELL BASIS 2  0 33.0097 0
Info: PERIODIC CELL BASIS 3  0 0 30.2883
Info: PERIODIC CELL CENTER   0 0 0
Info: WRAPPING WATERS AROUND PERIODIC BOUNDARIES ON OUTPUT.
Info: WRAPPING ALL CLUSTERS AROUND PERIODIC BOUNDARIES ON OUTPUT.
Info: FIRST LDB TIMESTEP     50
Info: LAST LDB TIMESTEP     -1
Info: HOM BACKGROUND SCALING 1
Info: PME BACKGROUND SCALING 1
Info: MIN ATOMS PER PATCH    40
Info: EMPTY PATCH LOAD       40 ATOMS
Info: VELOCITY FILE          mobley_2501588_equil.vel
Info: CENTER OF MASS MOVING INITIALLY? NO
Info: DIELECTRIC             1
Info: EXCLUDE                SCALED ONE-FOUR
Info: 1-4 ELECTROSTATICS SCALED BY 0.833333
Info: MODIFIED 1-4 VDW PARAMETERS WILL BE USED
Info: DCD FILENAME           mobley_2501588_prod.dcd
Info: DCD FREQUENCY          100000
Info: DCD FIRST STEP         100000
Info: DCD FILE WILL CONTAIN UNIT CELL DATA
Info: XST FILENAME           mobley_2501588_prod.xst
Info: XST FREQUENCY          100000
Info: NO VELOCITY DCD OUTPUT
Info: NO FORCE DCD OUTPUT
Info: OUTPUT FILENAME        mobley_2501588_prod
Info: BINARY OUTPUT FILES WILL BE USED
Info: RESTART FILENAME       mobley_2501588_prod.restart
Info: RESTART FREQUENCY      100000
Info: BINARY RESTART FILES WILL BE USED
Info: CUTOFF                 9
Info: PAIRLIST DISTANCE      11
Info: PAIRLIST SHRINK RATE   0.01
Info: PAIRLIST GROW RATE     0.01
Info: PAIRLIST TRIGGER       0.3
Info: PAIRLISTS PER CYCLE    2
Info: PAIRLISTS ENABLED
Info: MARGIN                 2
Info: HYDROGEN GROUP CUTOFF  2.5
Info: PATCH DIMENSION        15.5
Info: ENERGY OUTPUT STEPS    100000
Info: ENERGY EVALUATION STEPS    100000
Info: OUTPUT ENERGY PRECISION 4
Info: CROSSTERM ENERGY INCLUDED IN DIHEDRAL
Info: TIMING OUTPUT STEPS    1000000
Info: PRESSURE OUTPUT STEPS  100000
Info: ALCHEMICAL FEP ON
Info: FEP CURRENT LAMBDA VALUE     1
Info: FEP COMPARISON LAMBDA VALUE  0.95
Info: FEP INTRA-ALCHEMICAL NON-BONDED INTERACTIONS WILL BE RETAINED
Info: FEP INTRA-ALCHEMICAL BONDED INTERACTIONS WILL BE RETAINED
Info: FEP VDW SHIFTING COEFFICIENT 5
Info: FEP ELEC. ACTIVE FOR ANNIHILATED PARTICLES BETWEEN LAMBDA = 0 AND LAMBDA = 0.5
Info: FEP ELEC. ACTIVE FOR EXNIHILATED PARTICLES BETWEEN LAMBDA = 0.5 AND LAMBDA = 1
Info: FEP VDW ACTIVE FOR ANNIHILATED PARTICLES BETWEEN LAMBDA = 0 AND LAMBDA = 1
Info: FEP VDW ACTIVE FOR EXNIHILATED PARTICLES BETWEEN LAMBDA = 0 AND LAMBDA = 1
Info: FEP BOND ACTIVE FOR ANNIHILATED PARTICLES BETWEEN LAMBDA = 1 AND LAMBDA = 1
Info: FEP BOND ACTIVE FOR EXNIHILATED PARTICLES BETWEEN LAMBDA = 0 AND LAMBDA = 0
Info: LANGEVIN DYNAMICS ACTIVE
Info: LANGEVIN TEMPERATURE   300
Info: LANGEVIN USING BBK INTEGRATOR
Info: LANGEVIN DAMPING COEFFICIENT IS 1 INVERSE PS
Info: LANGEVIN DYNAMICS APPLIED TO HYDROGENS
Info: LANGEVIN PISTON PRESSURE CONTROL ACTIVE
Info:        TARGET PRESSURE IS 1.01325 BAR
Info:     OSCILLATION PERIOD IS 50 FS
Info:             DECAY TIME IS 25 FS
Info:     PISTON TEMPERATURE IS 300 K
Info:       PRESSURE CONTROL IS GROUP-BASED
Info:    INITIAL STRAIN RATE IS 0.000429203 0.000429203 0.000429203
Info:       CELL FLUCTUATION IS ISOTROPIC
Info: PARTICLE MESH EWALD (PME) ACTIVE
Info: PME TOLERANCE               1e-06
Info: PME EWALD COEFFICIENT       0.348832
Info: PME INTERPOLATION ORDER     4
Info: PME GRID DIMENSIONS         32 36 32
Info: PME MAXIMUM GRID SPACING    1
Info: PME CALCULATION WILL BE PERFORMED ON GPU
Info: FULL ELECTROSTATIC EVALUATION FREQUENCY      2
Info: USING VERLET I (r-RESPA) MTS SCHEME.
Info: C1 SPLITTING OF LONG RANGE ELECTROSTATICS
Info: PLACING ATOMS IN PATCHES BY HYDROGEN GROUPS
Info: RIGID BONDS TO HYDROGEN : ALL
Info:         ERROR TOLERANCE : 1e-08
Info:          MAX ITERATIONS : 100
Info: RIGID WATER USING SETTLE ALGORITHM
Info: RANDOM NUMBER SEED     1744106528
Info: USE HYDROGEN BONDS?    NO
Info: Using AMBER format force field!
Info: AMBER PARM FILE        mobley_2501588.prmtop
Info: COORDINATE PDB         mobley_2501588.pdb
Info: Exclusions will be read from PARM file!
Info: SCNB (VDW SCALING)     2
Info: USING ARITHMETIC MEAN TO COMBINE L-J SIGMA PARAMETERS
Info: BINARY COORDINATES     mobley_2501588_equil.coor
Info: SUMMARY OF PARAMETERS:
Info: 16 BONDS
Info: 25 ANGLES
Info:   25 HARMONIC
Info:   0 COSINE-BASED
Info: 8 DIHEDRAL
Info: 0 IMPROPER
Info: 0 CROSSTERM
Info: 0 VDW
Info: 55 VDW_PAIRS
Info: 0 NBTHOLE_PAIRS
Info: To read alchdata from file: mobley_2501588.pdb
Info: To read alchflag data from column: 5
Info: STRUCTURE SUMMARY:
Info: 2905 ATOMS
Info: 2906 BONDS
Info: 75 ANGLES
Info: 112 DIHEDRALS
Info: 0 IMPROPERS
Info: 0 CROSSTERMS
Info: 3068 EXCLUSIONS
Info: 2881 RIGID BONDS
Info: ALCH: 0 ATOMS TO DISAPPEAR IN FINAL STATE
Info: ALCH: 40 ATOMS TO APPEAR IN FINAL STATE
Info: 5834 DEGREES OF FREEDOM
Info: 979 HYDROGEN GROUPS
Info: 4 ATOMS IN LARGEST HYDROGEN GROUP
Info: 979 MIGRATION GROUPS
Info: 4 ATOMS IN LARGEST MIGRATION GROUP
Info: TOTAL MASS = 17552.6 amu
Info: TOTAL CHARGE = 0.000299972 e
Info: MASS DENSITY = 0.975823 g/cm^3
Info: ATOM DENSITY = 0.0972561 atoms/A^3
Info: ADDED 0 IMPLICIT EXCLUSIONS
Info: NONBONDED TABLE R-SQUARED SPACING: 0.0625
Info: NONBONDED TABLE SIZE: 705 POINTS
Info: REMOVING COM VELOCITY -0.069941 0.248441 0.174579
Info: Use 3D box decompostion in PME FFT.
Info: Updated CUDA force table with 4096 elements.
Info: Updated CUDA LJ table with 10 x 10 elements.
Info: Found 41 unique exclusion lists needing 224 bytes
TCL: Running for 1500000 steps
ETITLE: TS BOND ANGLE DIHED IMPRP ELECT VDW BOUNDARY MISC KINETIC TOTAL TEMP POTENTIAL TOTALAVG TEMPAVG PRESSURE GPRESSURE VOLUME PRESSAVG GPRESSAVG
ENERGY: 0 5.4450 23.9965 26.3170 0.0000 -10488.8085 1385.7237 0.0000 0.0000 1788.2171 -7259.1092 308.4922 -9047.3263 -7259.1092 308.4922 28.3272 117.3328 29869.5774 28.3272 117.3328
ENERGY: 300000 7.0515 18.3702 22.5780 0.0000 -10391.5243 1360.6205 0.0000 0.0000 1725.3963 -7257.5078 297.6548 -8982.9042 -7274.0355 300.0931 -8.8518 26.2665 29938.3896 45.6259 89.8712
ENERGY: 600000 11.5899 18.5432 26.3448 0.0000 -10406.6152 1307.8447 0.0000 0.0000 1734.1148 -7308.1778 299.1588 -9042.2926 -7266.9889 302.4727 -800.6994 -791.6384 30231.2070 222.3160 263.2931
ENERGY: 900000 8.9507 23.2944 24.8143 0.0000 -10397.5025 1349.5873 0.0000 0.0000 1736.3138 -7254.5420 299.5382 -8990.8558 -7246.6082 302.4764 -331.2035 -226.0595 30059.3185 123.9454 169.1022
ENERGY: 1200000 6.8417 20.0790 25.1777 0.0000 -10440.5090 1373.9071 0.0000 0.0000 1787.6633 -7226.8402 308.3967 -9014.5035 -7249.8201 302.8343 150.8667 195.3564 29637.0365 53.1462 99.1745
ENERGY: 1500000 6.8837 14.6437 25.3751 0.0000 -10425.5604 1354.4251 0.0000 0.0000 1771.6411 -7252.5918 305.6326 -9024.2329 -7260.7745 302.3511 -289.9550 -227.0084 29902.9704 57.0933 104.7525
TCL: Running FEP window   2: Lambda1 0.95   Lambda2 0.8999999999999999 [dLambda -0.050000000000000044]
TCL: Setting parameter firsttimestep to 0
TCL: Setting parameter alchLambda to 0.95
Info: NONBONDED TABLE R-SQUARED SPACING: 0.0625
Info: NONBONDED TABLE SIZE: 705 POINTS
TCL: Setting parameter alchLambda2 to 0.8999999999999999
Info: NONBONDED TABLE R-SQUARED SPACING: 0.0625
Info: NONBONDED TABLE SIZE: 705 POINTS
TCL: Running for 1500000 steps
ETITLE: TS BOND ANGLE DIHED IMPRP ELECT VDW BOUNDARY MISC KINETIC TOTAL TEMP POTENTIAL TOTALAVG TEMPAVG PRESSURE GPRESSURE VOLUME PRESSAVG GPRESSAVG
ENERGY: 0 6.8837 14.6437 25.3751 0.0000 -10424.8077 1355.5280 0.0000 0.0000 1770.8141 -7251.5631 305.4900 -9022.3773 -7251.5631 305.4900 -314.2382 -242.7102 29902.9704 -314.2382 -242.7102
ENERGY: 300000 9.0791 17.3526 26.0836 0.0000 -10503.6923 1435.2135 0.0000 0.0000 1714.6162 -7301.3472 295.7950 -9015.9634 -7278.9123 299.7438 327.0713 436.7831 29914.9980 -48.0208 22.9273
ENERGY: 600000 12.9637 15.7817 25.5392 0.0000 -10477.1700 1464.5124 0.0000 0.0000 1672.8704 -7285.5026 288.5933 -8958.3730 -7284.1964 297.9183 438.6133 546.1386 30551.1103 111.5794 189.4548
ENERGY: 900000 5.7124 12.9408 25.6248 0.0000 -10415.6457 1294.5688 0.0000 0.0000 1738.2522 -7338.5468 299.8726 -9076.7990 -7283.9488 298.4955 -1056.3388 -1026.3863 30187.2052 26.0814 98.9018
ENERGY: 1200000 7.6278 12.5525 22.9141 0.0000 -10414.6717 1406.9142 0.0000 0.0000 1758.1214 -7206.5417 303.3003 -8964.6631 -7278.1187 299.7884 78.7443 124.4894 30115.3648 82.2388 155.6110
ENERGY: 1500000 7.7055 28.8859 23.4028 0.0000 -10529.3733 1455.6905 0.0000 0.0000 1668.5614 -7345.1273 287.8499 -9013.6887 -7276.3996 298.5259 607.4393 640.3523 29855.6828 47.3216 120.1624
TCL: Running FEP window   3: Lambda1 0.8999999999999999 Lambda2 0.8499999999999999 [dLambda -0.050000000000000044]
TCL: Setting parameter firsttimestep to 0
TCL: Setting parameter alchLambda to 0.8999999999999999
Info: NONBONDED TABLE R-SQUARED SPACING: 0.0625
Info: NONBONDED TABLE SIZE: 705 POINTS
TCL: Setting parameter alchLambda2 to 0.8499999999999999
Info: NONBONDED TABLE R-SQUARED SPACING: 0.0625
Info: NONBONDED TABLE SIZE: 705 POINTS
TCL: Running for 1500000 steps
ETITLE: TS BOND ANGLE DIHED IMPRP ELECT VDW BOUNDARY MISC KINETIC TOTAL TEMP POTENTIAL TOTALAVG TEMPAVG PRESSURE GPRESSURE VOLUME PRESSAVG GPRESSAVG
ENERGY: 0 7.7055 28.8859 23.4028 0.0000 -10528.6713 1455.6561 0.0000 0.0000 1667.7048 -7345.3163 287.7022 -9013.0211 -7345.3163 287.7022 544.5067 613.1350 29855.6828 544.5067 613.1350
ENERGY: 300000 11.9047 16.5442 27.2426 0.0000 -10361.1802 1305.8757 0.0000 0.0000 1724.7017 -7274.9113 297.5349 -8999.6130 -7290.3646 297.8539 -781.2331 -752.0562 29953.8484 -99.0794 -44.5418
ENERGY: 600000 8.1501 19.0410 27.9605 0.0000 -10320.4183 1345.1472 0.0000 0.0000 1678.0327 -7242.0868 289.4839 -8920.1195 -7285.3425 296.1055 -240.1586 -135.8600 29954.7178 -199.3938 -145.1114
ENERGY: 900000 7.6709 17.3728 27.5288 0.0000 -10353.7544 1327.7968 0.0000 0.0000 1743.1943 -7230.1908 300.7252 -8973.3851 -7275.8209 296.7808 -320.1432 -290.6112 30200.5562 -198.9012 -147.4294
ENERGY: 1200000 8.5226 12.8939 24.7503 0.0000 -10369.7552 1361.5996 0.0000 0.0000 1733.3314 -7228.6573 299.0237 -8961.9887 -7276.1827 297.5184 12.9520 -10.6972 30396.0058 -129.7744 -81.3630
ENERGY: 1500000 8.6521 14.8928 27.5556 0.0000 -10437.0699 1341.9031 0.0000 0.0000 1744.1655 -7299.9007 300.8927 -9044.0662 -7280.4583 297.4686 -780.0303 -788.5963 30229.0299 -163.3043 -113.8410
TCL: Running FEP window   4: Lambda1 0.8499999999999999 Lambda2 0.7999999999999998 [dLambda -0.050000000000000044]
TCL: Setting parameter firsttimestep to 0
TCL: Setting parameter alchLambda to 0.8499999999999999
Info: NONBONDED TABLE R-SQUARED SPACING: 0.0625
Info: NONBONDED TABLE SIZE: 705 POINTS
TCL: Setting parameter alchLambda2 to 0.7999999999999998
Info: NONBONDED TABLE R-SQUARED SPACING: 0.0625
Info: NONBONDED TABLE SIZE: 705 POINTS
TCL: Running for 1500000 steps
ETITLE: TS BOND ANGLE DIHED IMPRP ELECT VDW BOUNDARY MISC KINETIC TOTAL TEMP POTENTIAL TOTALAVG TEMPAVG PRESSURE GPRESSURE VOLUME PRESSAVG GPRESSAVG
ENERGY: 0 8.6521 14.8928 27.5556 0.0000 -10436.2735 1342.4552 0.0000 0.0000 1743.2845 -7299.4332 300.7407 -9042.7177 -7299.4332 300.7407 -867.0150 -803.3409 30229.0299 -867.0150 -803.3409
ENERGY: 300000 11.0332 15.3694 26.6869 0.0000 -10478.4224 1403.3236 0.0000 0.0000 1766.5724 -7255.4369 304.7582 -9022.0093 -7226.8619 304.0321 109.3325 105.0578 29632.6108 -309.0505 -252.3753
ENERGY: 600000 7.8273 17.7434 23.1944 0.0000 -10294.6336 1284.2352 0.0000 0.0000 1688.7171 -7272.9163 291.3271 -8961.6334 -7238.3515 301.0323 -794.5475 -773.4609 29898.8855 -135.4241 -83.4844
ENERGY: 900000 7.7363 17.7680 26.5535 0.0000 -10354.9503 1349.4626 0.0000 0.0000 1739.6455 -7213.7845 300.1129 -8953.4300 -7245.7536 301.1321 -215.3904 -78.5753 29811.4439 -255.6826 -197.0559
ENERGY: 1200000 8.6198 18.5884 24.1936 0.0000 -10249.4261 1247.5036 0.0000 0.0000 1747.4914 -7203.0293 301.4665 -8950.5207 -7250.7550 300.5160 -793.9020 -750.4584 30275.0636 -302.6427 -241.8220
ENERGY: 1500000 10.0153 16.0221 25.3311 0.0000 -10377.1177 1341.8216 0.0000 0.0000 1782.7548 -7201.1728 307.5499 -8983.9276 -7240.9184 301.3737 -478.3337 -410.8886 30018.4698 -241.3516 -181.7973
TCL: Running FEP window   5: Lambda1 0.7999999999999998 Lambda2 0.7499999999999998 [dLambda -0.050000000000000044]
TCL: Setting parameter firsttimestep to 0
TCL: Setting parameter alchLambda to 0.7999999999999998
Info: NONBONDED TABLE R-SQUARED SPACING: 0.0625
Info: NONBONDED TABLE SIZE: 705 POINTS
TCL: Setting parameter alchLambda2 to 0.7499999999999998
Info: NONBONDED TABLE R-SQUARED SPACING: 0.0625
Info: NONBONDED TABLE SIZE: 705 POINTS
TCL: Running for 1500000 steps
ETITLE: TS BOND ANGLE DIHED IMPRP ELECT VDW BOUNDARY MISC KINETIC TOTAL TEMP POTENTIAL TOTALAVG TEMPAVG PRESSURE GPRESSURE VOLUME PRESSAVG GPRESSAVG
ENERGY: 0 10.0152 16.0221 25.3311 0.0000 -10376.3765 1342.3283 0.0000 0.0000 1781.8870 -7200.7928 307.4002 -8982.6798 -7200.7928 307.4002 -515.6497 -424.7273 30018.4698 -515.6497 -424.7273
ENERGY: 300000 13.4988 25.0720 24.6353 0.0000 -10351.2428 1340.6198 0.0000 0.0000 1753.0039 -7194.4130 302.4175 -8947.4170 -7230.1459 302.4794 -220.8731 -177.3488 29823.2304 9.4008 62.4767
ENERGY: 600000 6.0842 20.1713 27.0982 0.0000 -10516.3345 1392.8786 0.0000 0.0000 1732.3813 -7337.7209 298.8598 -9070.1022 -7277.7938 298.9851 -2.7697 20.4648 29509.3693 -108.1346 -53.2947
ENERGY: 900000 10.4903 15.1322 25.0808 0.0000 -10346.9464 1302.4156 0.0000 0.0000 1743.4405 -7250.3871 300.7676 -8993.8276 -7278.8648 298.7922 -689.1273 -689.2108 30026.6204 -194.0254 -134.0667
ENERGY: 1200000 10.2605 19.4383 25.6697 0.0000 -10491.8105 1405.1451 0.0000 0.0000 1764.5058 -7266.7912 304.4017 -9031.2969 -7284.3276 298.8662 182.4249 244.8726 29882.6991 -95.9224 -30.7731
ENERGY: 1500000 9.2406 15.7005 26.4902 0.0000 -10436.2923 1384.0354 0.0000 0.0000 1777.5236 -7223.3021 306.6474 -9000.8257 -7276.3042 300.0032 119.6241 197.1750 29633.4456 -121.9794 -56.3837
TCL: Running FEP window   6: Lambda1 0.7499999999999998 Lambda2 0.6999999999999997 [dLambda -0.050000000000000044]
TCL: Setting parameter firsttimestep to 0
TCL: Setting parameter alchLambda to 0.7499999999999998
Info: NONBONDED TABLE R-SQUARED SPACING: 0.0625
Info: NONBONDED TABLE SIZE: 705 POINTS
TCL: Setting parameter alchLambda2 to 0.6999999999999997
Info: NONBONDED TABLE R-SQUARED SPACING: 0.0625
Info: NONBONDED TABLE SIZE: 705 POINTS
TCL: Running for 1500000 steps
ETITLE: TS BOND ANGLE DIHED IMPRP ELECT VDW BOUNDARY MISC KINETIC TOTAL TEMP POTENTIAL TOTALAVG TEMPAVG PRESSURE GPRESSURE VOLUME PRESSAVG GPRESSAVG
ENERGY: 0 9.2406 15.7005 26.4902 0.0000 -10435.3060 1384.3640 0.0000 0.0000 1776.6875 -7222.8233 306.5032 -8999.5108 -7222.8233 306.5032 87.7193 180.7405 29633.4456 87.7193 180.7405
ENERGY: 300000 9.9165 17.6388 27.3211 0.0000 -10441.5303 1362.7866 0.0000 0.0000 1722.3279 -7301.5395 297.1254 -9023.8674 -7262.5866 300.3617 -340.7405 -289.4795 29876.9700 260.7733 328.5329
ENERGY: 600000 8.6628 14.7853 23.4884 0.0000 -10344.9776 1281.0444 0.0000 0.0000 1757.3343 -7259.6624 303.1645 -9016.9967 -7259.4976 300.5820 -1023.6661 -908.7916 29862.9693 56.2878 125.0167
ENERGY: 900000 9.1559 21.9617 24.5855 0.0000 -10426.5791 1360.7633 0.0000 0.0000 1662.0520 -7348.0608 286.7270 -9010.1128 -7268.1992 298.5930 -309.5236 -282.2294 29831.6885 131.4325 198.7057
ENERGY: 1200000 9.4860 17.1602 27.2707 0.0000 -10259.5753 1244.0126 0.0000 0.0000 1704.0557 -7257.5901 293.9732 -8961.6458 -7258.1376 299.0761 -1451.4354 -1451.1454 30327.6400 14.6438 70.6413
ENERGY: 1500000 10.8453 21.1943 25.1976 0.0000 -10402.3524 1396.2474 0.0000 0.0000 1743.0525 -7205.8153 300.7007 -8948.8677 -7255.5768 299.1519 -117.4870 -134.6788 30162.6192 -27.8560 19.2837
TCL: Running FEP window   7: Lambda1 0.6999999999999997 Lambda2 0.6499999999999997 [dLambda -0.050000000000000044]
TCL: Setting parameter firsttimestep to 0
TCL: Setting parameter alchLambda to 0.6999999999999997
Info: NONBONDED TABLE R-SQUARED SPACING: 0.0625
Info: NONBONDED TABLE SIZE: 705 POINTS
TCL: Setting parameter alchLambda2 to 0.6499999999999997
Info: NONBONDED TABLE R-SQUARED SPACING: 0.0625
Info: NONBONDED TABLE SIZE: 705 POINTS
TCL: Running for 1500000 steps
ETITLE: TS BOND ANGLE DIHED IMPRP ELECT VDW BOUNDARY MISC KINETIC TOTAL TEMP POTENTIAL TOTALAVG TEMPAVG PRESSURE GPRESSURE VOLUME PRESSAVG GPRESSAVG
ENERGY: 0 10.8453 21.1943 25.1976 0.0000 -10401.5781 1397.6021 0.0000 0.0000 1742.1894 -7204.5493 300.5518 -8946.7387 -7204.5493 300.5518 -221.7731 -138.8375 30162.6192 -221.7731 -138.8375
ENERGY: 300000 7.5245 12.9868 26.4636 0.0000 -10439.1100 1411.6262 0.0000 0.0000 1758.4274 -7222.0815 303.3531 -8980.5089 -7215.5894 302.2182 498.7131 531.5283 29910.2959 -62.0362 0.3660
ENERGY: 600000 8.5246 15.9057 24.3149 0.0000 -10469.6522 1419.8657 0.0000 0.0000 1747.1664 -7253.8750 301.4104 -9001.0414 -7238.0477 300.1627 151.0632 278.8213 29860.5708 -34.6780 43.3200
ENERGY: 900000 9.9733 22.6500 25.3618 0.0000 -10422.5157 1383.4910 0.0000 0.0000 1773.5868 -7207.4528 305.9683 -8981.0396 -7239.0240 300.1616 -157.3514 -85.9082 29842.6502 206.0191 280.4356
ENERGY: 1200000 9.2111 14.9196 25.3877 0.0000 -10434.8365 1383.0362 0.0000 0.0000 1713.3281 -7288.9537 295.5728 -9002.2818 -7238.8237 299.8595 -326.1261 -246.8244 29904.2155 47.0379 125.0310
ENERGY: 1500000 7.7702 17.5000 27.0655 0.0000 -10419.2330 1403.7336 0.0000 0.0000 1681.9166 -7281.2471 290.1539 -8963.1637 -7239.2889 299.7068 162.7398 163.8710 29974.2728 119.2027 185.8658
TCL: Running FEP window   8: Lambda1 0.6499999999999997 Lambda2 0.5999999999999996 [dLambda -0.050000000000000044]
TCL: Setting parameter firsttimestep to 0
TCL: Setting parameter alchLambda to 0.6499999999999997
Info: NONBONDED TABLE R-SQUARED SPACING: 0.0625
Info: NONBONDED TABLE SIZE: 705 POINTS
TCL: Setting parameter alchLambda2 to 0.5999999999999996
Info: NONBONDED TABLE R-SQUARED SPACING: 0.0625
Info: NONBONDED TABLE SIZE: 705 POINTS
TCL: Running for 1500000 steps
ETITLE: TS BOND ANGLE DIHED IMPRP ELECT VDW BOUNDARY MISC KINETIC TOTAL TEMP POTENTIAL TOTALAVG TEMPAVG PRESSURE GPRESSURE VOLUME PRESSAVG GPRESSAVG
ENERGY: 0 7.7702 17.5000 27.0655 0.0000 -10418.6327 1404.6053 0.0000 0.0000 1681.0704 -7280.6213 290.0079 -8961.6917 -7280.6213 290.0079 85.2634 157.5233 29974.2728 85.2634 157.5233
ENERGY: 300000 6.3748 21.9217 27.2753 0.0000 -10517.7479 1439.0522 0.0000 0.0000 1791.8169 -7231.3071 309.1132 -9023.1240 -7248.6941 298.6454 38.6371 60.6064 30356.8365 169.0457 254.8007
ENERGY: 600000 8.7007 21.4693 26.4173 0.0000 -10385.9421 1337.8612 0.0000 0.0000 1708.1801 -7283.3135 294.6847 -8991.4936 -7236.9339 299.9550 -589.2511 -473.9963 30185.0450 -67.0989 8.1265
ENERGY: 900000 3.2213 14.3655 25.5156 0.0000 -10263.7568 1310.4808 0.0000 0.0000 1702.9703 -7207.2033 293.7860 -8910.1736 -7234.5045 297.8420 -301.5138 -210.5877 29934.8761 -194.6622 -120.7775
ENERGY: 1200000 11.9809 20.5760 27.1744 0.0000 -10470.1836 1430.8593 0.0000 0.0000 1794.4169 -7185.1762 309.5618 -8979.5930 -7241.2366 298.8948 159.7547 261.2296 29740.1566 -131.5087 -61.9113
ENERGY: 1500000 14.1099 19.9549 23.1866 0.0000 -10425.9606 1322.9215 0.0000 0.0000 1693.1974 -7352.5903 292.1000 -9045.7878 -7243.0115 299.2642 -795.0290 -755.7115 29876.5385 -201.6624 -132.0042
TCL: Running FEP window   9: Lambda1 0.5999999999999996 Lambda2 0.5499999999999996 [dLambda -0.050000000000000044]
TCL: Setting parameter firsttimestep to 0
TCL: Setting parameter alchLambda to 0.5999999999999996
Info: NONBONDED TABLE R-SQUARED SPACING: 0.0625
Info: NONBONDED TABLE SIZE: 705 POINTS
TCL: Setting parameter alchLambda2 to 0.5499999999999996
Info: NONBONDED TABLE R-SQUARED SPACING: 0.0625
Info: NONBONDED TABLE SIZE: 705 POINTS
TCL: Running for 1500000 steps
ETITLE: TS BOND ANGLE DIHED IMPRP ELECT VDW BOUNDARY MISC KINETIC TOTAL TEMP POTENTIAL TOTALAVG TEMPAVG PRESSURE GPRESSURE VOLUME PRESSAVG GPRESSAVG
ENERGY: 0 14.1099 19.9549 23.1866 0.0000 -10425.8196 1323.5456 0.0000 0.0000 1692.3746 -7352.6480 291.9581 -9045.0226 -7352.6480 291.9581 -854.2645 -769.0910 29876.5385 -854.2645 -769.0910
ENERGY: 300000 6.5544 15.7833 21.9367 0.0000 -10537.8096 1497.7895 0.0000 0.0000 1722.2624 -7273.4834 297.1141 -8995.7457 -7299.9159 296.3544 703.4611 793.5527 29844.3502 178.9741 252.9395
ENERGY: 600000 5.3450 13.8586 26.6072 0.0000 -10500.9167 1463.2304 0.0000 0.0000 1735.1871 -7256.6884 299.3438 -8991.8755 -7285.5954 297.5520 424.1054 450.5358 30144.3455 304.7292 372.4239
ENERGY: 900000 7.2799 11.5470 23.1340 0.0000 -10407.8004 1389.5955 0.0000 0.0000 1755.2596 -7220.9844 302.8066 -8976.2440 -7265.8870 298.8279 -122.0182 -68.5182 30146.0821 110.1571 167.9119
ENERGY: 1200000 4.6183 17.6375 28.5240 0.0000 -10399.7519 1455.1569 0.0000 0.0000 1747.0918 -7146.7234 301.3975 -8893.8152 -7261.4107 299.8375 961.3163 1042.9130 29780.5142 134.0491 192.6665
ENERGY: 1500000 6.1046 16.9018 25.8386 0.0000 -10504.2324 1456.2166 0.0000 0.0000 1718.4903 -7280.6806 296.4634 -8999.1709 -7256.7614 299.9768 711.1878 728.6396 29677.7558 81.2312 132.7261
TCL: Running FEP window  10: Lambda1 0.5499999999999996 Lambda2 0.4999999999999996 [dLambda -0.04999999999999999]
TCL: Setting parameter firsttimestep to 0
TCL: Setting parameter alchLambda to 0.5499999999999996
Info: NONBONDED TABLE R-SQUARED SPACING: 0.0625
Info: NONBONDED TABLE SIZE: 705 POINTS
TCL: Setting parameter alchLambda2 to 0.4999999999999996
Info: NONBONDED TABLE R-SQUARED SPACING: 0.0625
Info: NONBONDED TABLE SIZE: 705 POINTS
TCL: Running for 1500000 steps
ETITLE: TS BOND ANGLE DIHED IMPRP ELECT VDW BOUNDARY MISC KINETIC TOTAL TEMP POTENTIAL TOTALAVG TEMPAVG PRESSURE GPRESSURE VOLUME PRESSAVG GPRESSAVG
ENERGY: 0 6.1046 16.9018 25.8386 0.0000 -10503.2962 1456.8635 0.0000 0.0000 1717.5839 -7280.0039 296.3070 -8997.5878 -7280.0039 296.3070 670.2390 723.5742 29677.7558 670.2390 723.5742
ENERGY: 300000 7.0481 21.4508 24.3770 0.0000 -10563.2075 1459.7536 0.0000 0.0000 1769.9465 -7280.6315 305.3403 -9050.5780 -7257.8587 299.4955 -250.1669 -163.7435 30428.3944 32.7215 102.6163
ENERGY: 600000 7.5916 11.6260 26.7925 0.0000 -10421.1244 1401.7340 0.0000 0.0000 1731.0190 -7242.3613 298.6247 -8973.3803 -7267.2719 298.8422 361.2300 431.9191 29527.5146 14.0040 78.9626
ENERGY: 900000 5.0770 17.1367 27.7848 0.0000 -10506.1247 1439.5226 0.0000 0.0000 1742.2809 -7274.3227 300.5676 -9016.6036 -7260.3426 299.2498 446.1116 475.5195 29533.5434 49.8435 106.9037
ENERGY: 1200000 7.2742 15.3291 25.7997 0.0000 -10256.4681 1317.7245 0.0000 0.0000 1809.5000 -7080.8405 312.1638 -8890.3405 -7242.0866 299.8840 -840.3853 -793.2963 30857.0950 -1.6016 58.1575
ENERGY: 1500000 7.0782 14.4764 29.6445 0.0000 -10605.8362 1504.6052 0.0000 0.0000 1739.5451 -7310.4868 300.0956 -9050.0319 -7251.2980 300.0618 1014.0045 1067.9889 29633.8250 50.9210 106.2202
TCL: Running FEP window  11: Lambda1 0.4999999999999996 Lambda2 0.4499999999999996 [dLambda -0.04999999999999999]
TCL: Setting parameter firsttimestep to 0
TCL: Setting parameter alchLambda to 0.4999999999999996
Info: NONBONDED TABLE R-SQUARED SPACING: 0.0625
Info: NONBONDED TABLE SIZE: 705 POINTS
TCL: Setting parameter alchLambda2 to 0.4499999999999996
Info: NONBONDED TABLE R-SQUARED SPACING: 0.0625
Info: NONBONDED TABLE SIZE: 705 POINTS
TCL: Running for 1500000 steps
ETITLE: TS BOND ANGLE DIHED IMPRP ELECT VDW BOUNDARY MISC KINETIC TOTAL TEMP POTENTIAL TOTALAVG TEMPAVG PRESSURE GPRESSURE VOLUME PRESSAVG GPRESSAVG
ENERGY: 0 7.0782 14.4764 29.6445 0.0000 -10605.4483 1505.8314 0.0000 0.0000 1738.6783 -7309.7395 299.9461 -9048.4178 -7309.7395 299.9461 983.1859 1065.2116 29633.8250 983.1859 1065.2116
ENERGY: 300000 11.7753 19.3018 25.0300 0.0000 -10372.3274 1403.0222 0.0000 0.0000 1750.9225 -7162.2757 302.0584 -8913.1982 -7218.0814 302.3687 -62.8698 6.6997 30448.2887 -9.1996 62.9462
ENERGY: 600000 8.4055 15.8850 26.5896 0.0000 -10476.7446 1430.3073 0.0000 0.0000 1742.3021 -7253.2550 300.5712 -8995.5571 -7243.2585 299.5766 393.0397 496.7261 29356.2545 152.2715 225.2648
ENERGY: 900000 13.3033 19.3216 30.4992 0.0000 -10411.1977 1413.7870 0.0000 0.0000 1760.2343 -7174.0524 303.6648 -8934.2867 -7225.7681 299.7778 349.1608 420.1904 30235.8234 91.7368 166.0144
ENERGY: 1200000 7.7380 12.9742 25.6658 0.0000 -10333.9124 1435.0787 0.0000 0.0000 1709.8225 -7142.6332 294.9681 -8852.4557 -7225.4751 300.0782 321.9246 339.3341 30463.7989 55.0517 125.6836
ENERGY: 1500000 5.6885 19.2343 24.2283 0.0000 -10465.0267 1328.8989 0.0000 0.0000 1728.1543 -7358.8223 298.1306 -9086.9766 -7240.0437 299.8612 -787.6600 -714.8876 29592.2458 -0.2868 73.0615
TCL: Running FEP window  12: Lambda1 0.4499999999999996 Lambda2 0.39999999999999963 [dLambda -0.04999999999999999]
TCL: Setting parameter firsttimestep to 0
TCL: Setting parameter alchLambda to 0.4499999999999996
Info: NONBONDED TABLE R-SQUARED SPACING: 0.0625
Info: NONBONDED TABLE SIZE: 705 POINTS
TCL: Setting parameter alchLambda2 to 0.39999999999999963
Info: NONBONDED TABLE R-SQUARED SPACING: 0.0625
Info: NONBONDED TABLE SIZE: 705 POINTS
TCL: Running for 1500000 steps
ETITLE: TS BOND ANGLE DIHED IMPRP ELECT VDW BOUNDARY MISC KINETIC TOTAL TEMP POTENTIAL TOTALAVG TEMPAVG PRESSURE GPRESSURE VOLUME PRESSAVG GPRESSAVG
ENERGY: 0 5.6885 19.2343 24.2283 0.0000 -10465.0242 1329.3059 0.0000 0.0000 1727.2690 -7359.2981 297.9778 -9086.5671 -7359.2981 297.9778 -795.0902 -725.6328 29592.2458 -795.0902 -725.6328
ENERGY: 300000 10.4717 18.2324 28.9338 0.0000 -10373.7254 1305.4511 0.0000 0.0000 1798.6047 -7212.0317 310.2842 -9010.6364 -7276.0447 302.8523 -614.5244 -518.8597 30204.6100 -697.0533 -615.9441
ENERGY: 600000 6.4261 19.8756 25.8355 0.0000 -10443.1581 1402.9914 0.0000 0.0000 1761.6120 -7226.4177 303.9025 -8988.0296 -7243.3895 303.0878 86.6140 110.9085 29993.2985 -295.4419 -229.9752
ENERGY: 900000 7.7386 15.2509 27.1173 0.0000 -10408.8239 1372.0068 0.0000 0.0000 1732.8177 -7253.8926 298.9350 -8986.7103 -7251.7961 301.1856 -464.4783 -371.4028 30085.5014 -320.3082 -250.1750
ENERGY: 1200000 5.6468 16.9987 30.2965 0.0000 -10482.0168 1400.3722 0.0000 0.0000 1718.8386 -7309.8641 296.5235 -9028.7027 -7255.8524 301.8593 -119.0999 -24.7916 29616.1331 -188.9179 -124.8150
ENERGY: 1500000 11.4999 18.6035 28.6422 0.0000 -10408.6562 1329.3081 0.0000 0.0000 1722.6534 -7297.9492 297.1816 -9020.6026 -7250.7263 301.5305 -1021.6767 -983.2527 29948.5153 -249.0391 -184.3965
TCL: Running FEP window  13: Lambda1 0.39999999999999963 Lambda2 0.34999999999999964 [dLambda -0.04999999999999999]
TCL: Setting parameter firsttimestep to 0
TCL: Setting parameter alchLambda to 0.39999999999999963
Info: NONBONDED TABLE R-SQUARED SPACING: 0.0625
Info: NONBONDED TABLE SIZE: 705 POINTS
TCL: Setting parameter alchLambda2 to 0.34999999999999964
Info: NONBONDED TABLE R-SQUARED SPACING: 0.0625
Info: NONBONDED TABLE SIZE: 705 POINTS
TCL: Running for 1500000 steps
ETITLE: TS BOND ANGLE DIHED IMPRP ELECT VDW BOUNDARY MISC KINETIC TOTAL TEMP POTENTIAL TOTALAVG TEMPAVG PRESSURE GPRESSURE VOLUME PRESSAVG GPRESSAVG
ENERGY: 0 11.4999 18.6035 28.6422 0.0000 -10408.6560 1328.9757 0.0000 0.0000 1721.8101 -7299.1245 297.0361 -9020.9347 -7299.1245 297.0361 -1073.9363 -992.7222 29948.5153 -1073.9363 -992.7222
ENERGY: 300000 4.3896 15.6458 27.4275 0.0000 -10462.8910 1415.6753 0.0000 0.0000 1742.8592 -7256.8936 300.6674 -8999.7529 -7259.7190 299.5783 82.0770 143.4299 29882.5736 -291.5430 -237.1249
ENERGY: 600000 4.3208 18.6514 26.6548 0.0000 -10509.0652 1415.7288 0.0000 0.0000 1741.4802 -7302.2292 300.4294 -9043.7094 -7253.6717 301.4277 96.9697 87.2306 30130.2634 -178.2320 -132.2092
ENERGY: 900000 9.0553 14.3436 29.4558 0.0000 -10395.8725 1362.5737 0.0000 0.0000 1774.6762 -7205.7678 306.1562 -8980.4441 -7241.0040 302.2551 43.1447 130.8082 29462.3907 -42.8377 3.3907
ENERGY: 1200000 9.6394 19.4855 29.5552 0.0000 -10520.5799 1449.8265 0.0000 0.0000 1753.3983 -7258.6752 302.4855 -9012.0735 -7250.2112 302.2043 322.0194 386.3285 29812.3953 -62.7822 -15.9348
ENERGY: 1500000 5.9387 18.1988 25.7888 0.0000 -10609.2307 1481.8472 0.0000 0.0000 1689.7938 -7387.6633 291.5128 -9077.4570 -7260.6485 300.8170 570.5445 568.2596 29923.7356 -22.0327 18.9657
TCL: Running FEP window  14: Lambda1 0.34999999999999964 Lambda2 0.29999999999999966 [dLambda -0.04999999999999999]
TCL: Setting parameter firsttimestep to 0
TCL: Setting parameter alchLambda to 0.34999999999999964
Info: NONBONDED TABLE R-SQUARED SPACING: 0.0625
Info: NONBONDED TABLE SIZE: 705 POINTS
TCL: Setting parameter alchLambda2 to 0.29999999999999966
Info: NONBONDED TABLE R-SQUARED SPACING: 0.0625
Info: NONBONDED TABLE SIZE: 705 POINTS
TCL: Running for 1500000 steps
ETITLE: TS BOND ANGLE DIHED IMPRP ELECT VDW BOUNDARY MISC KINETIC TOTAL TEMP POTENTIAL TOTALAVG TEMPAVG PRESSURE GPRESSURE VOLUME PRESSAVG GPRESSAVG
ENERGY: 0 5.9387 18.1988 25.7888 0.0000 -10609.2311 1482.6020 0.0000 0.0000 1688.9487 -7387.7539 291.3670 -9076.7026 -7387.7539 291.3670 481.3828 562.1922 29923.7356 481.3828 562.1922
ENERGY: 300000 4.6934 18.7080 24.8343 0.0000 -10325.2206 1451.0304 0.0000 0.0000 1766.4539 -7059.5007 304.7378 -8825.9545 -7248.4227 297.9352 1005.0087 1079.2894 29810.5510 414.1015 477.4025
ENERGY: 600000 5.9435 14.6793 24.5931 0.0000 -10497.9531 1421.3610 0.0000 0.0000 1740.7690 -7290.6071 300.3068 -9031.3762 -7254.2467 299.4331 -57.5143 5.2768 29904.6831 149.9112 212.4049
ENERGY: 900000 9.3606 15.2347 25.0254 0.0000 -10419.1624 1410.3466 0.0000 0.0000 1744.2113 -7214.9839 300.9006 -8959.1951 -7247.0766 299.9881 -98.2293 13.8443 29867.7532 131.3948 190.9602
ENERGY: 1200000 14.7834 17.2966 26.0715 0.0000 -10534.0054 1489.6762 0.0000 0.0000 1750.5054 -7235.6722 301.9864 -8986.1776 -7248.5743 300.1040 605.7710 637.2276 29604.1579 133.3948 193.1146
ENERGY: 1500000 8.7577 17.9617 25.1343 0.0000 -10375.7975 1285.3935 0.0000 0.0000 1778.9553 -7259.5951 306.8944 -9038.5504 -7249.8950 300.3321 -1006.4492 -880.0951 29317.0133 99.5589 166.5302
TCL: Running FEP window  15: Lambda1 0.29999999999999966 Lambda2 0.24999999999999967 [dLambda -0.04999999999999999]
TCL: Setting parameter firsttimestep to 0
TCL: Setting parameter alchLambda to 0.29999999999999966
Info: NONBONDED TABLE R-SQUARED SPACING: 0.0625
Info: NONBONDED TABLE SIZE: 705 POINTS
TCL: Setting parameter alchLambda2 to 0.24999999999999967
Info: NONBONDED TABLE R-SQUARED SPACING: 0.0625
Info: NONBONDED TABLE SIZE: 705 POINTS
TCL: Running for 1500000 steps
ETITLE: TS BOND ANGLE DIHED IMPRP ELECT VDW BOUNDARY MISC KINETIC TOTAL TEMP POTENTIAL TOTALAVG TEMPAVG PRESSURE GPRESSURE VOLUME PRESSAVG GPRESSAVG
ENERGY: 0 8.7577 17.9617 25.1343 0.0000 -10375.7983 1285.4586 0.0000 0.0000 1778.0661 -7260.4200 306.7410 -9038.4860 -7260.4200 306.7410 -987.5578 -891.3582 29317.0133 -987.5578 -891.3582
ENERGY: 300000 11.7092 13.1378 26.3184 0.0000 -10496.7846 1423.4726 0.0000 0.0000 1711.0102 -7311.1364 295.1730 -9022.1467 -7291.6334 301.4162 -370.1395 -292.1867 29660.8105 -507.6942 -442.7602
ENERGY: 600000 12.2842 12.5401 24.2941 0.0000 -10291.4446 1331.4159 0.0000 0.0000 1712.5463 -7198.3640 295.4379 -8910.9102 -7252.2878 302.4798 -338.7852 -259.6391 29619.3689 -289.0456 -219.2943
ENERGY: 900000 12.2546 14.8597 24.5098 0.0000 -10450.1879 1393.8193 0.0000 0.0000 1765.8022 -7238.9422 304.6253 -9004.7444 -7266.5007 301.5513 -91.8685 -18.2814 29789.3048 -333.0570 -269.0157
ENERGY: 1200000 9.4537 10.8906 29.3633 0.0000 -10472.8246 1434.1971 0.0000 0.0000 1725.2892 -7263.6307 297.6363 -8988.9199 -7265.3764 301.0414 215.9248 251.3715 29493.4985 -164.1663 -110.2795
ENERGY: 1500000 3.9283 21.0800 28.1764 0.0000 -10613.8563 1505.7927 0.0000 0.0000 1727.0939 -7327.7849 297.9476 -9054.8788 -7266.1977 300.8008 578.0699 670.1957 29480.4220 -125.5436 -72.1948
TCL: Running FEP window  16: Lambda1 0.24999999999999967 Lambda2 0.19999999999999968 [dLambda -0.04999999999999999]
TCL: Setting parameter firsttimestep to 0
TCL: Setting parameter alchLambda to 0.24999999999999967
Info: NONBONDED TABLE R-SQUARED SPACING: 0.0625
Info: NONBONDED TABLE SIZE: 705 POINTS
TCL: Setting parameter alchLambda2 to 0.19999999999999968
Info: NONBONDED TABLE R-SQUARED SPACING: 0.0625
Info: NONBONDED TABLE SIZE: 705 POINTS
TCL: Running for 1500000 steps
ETITLE: TS BOND ANGLE DIHED IMPRP ELECT VDW BOUNDARY MISC KINETIC TOTAL TEMP POTENTIAL TOTALAVG TEMPAVG PRESSURE GPRESSURE VOLUME PRESSAVG GPRESSAVG
ENERGY: 0 3.9283 21.0801 28.1764 0.0000 -10613.8565 1505.8625 0.0000 0.0000 1726.1998 -7328.6093 297.7934 -9054.8091 -7328.6093 297.7934 572.7159 660.6823 29480.4220 572.7159 660.6823
ENERGY: 300000 12.0424 12.0073 27.2580 0.0000 -10391.4864 1348.5958 0.0000 0.0000 1733.2216 -7258.3612 299.0047 -8991.5829 -7264.7503 296.6950 -662.7896 -534.3393 29680.5160 224.7050 314.4600
ENERGY: 600000 12.7648 18.4491 25.6912 0.0000 -10490.0680 1498.2851 0.0000 0.0000 1678.5015 -7256.3763 289.5647 -8934.8778 -7265.3925 294.0287 525.2807 592.9225 29843.1020 382.5116 465.9075
ENERGY: 900000 5.9858 10.1599 28.6690 0.0000 -10326.8450 1412.7710 0.0000 0.0000 1764.4926 -7104.7668 304.3994 -8869.2594 -7233.9857 296.6095 630.4196 657.7030 29761.4666 378.1293 449.9107
ENERGY: 1200000 8.5540 18.5704 26.3326 0.0000 -10494.8582 1455.8675 0.0000 0.0000 1677.6918 -7307.8418 289.4251 -8985.5336 -7244.0286 297.1998 448.6885 516.1424 29635.0958 310.2027 371.1978
ENERGY: 1500000 9.5857 15.1952 22.5523 0.0000 -10441.4766 1353.4648 0.0000 0.0000 1806.4456 -7234.2330 311.6369 -9040.6786 -7248.0987 297.9452 -903.3372 -862.2623 30228.0458 125.9848 182.9404
TCL: Running FEP window  17: Lambda1 0.19999999999999968 Lambda2 0.1499999999999997 [dLambda -0.04999999999999999]
TCL: Setting parameter firsttimestep to 0
TCL: Setting parameter alchLambda to 0.19999999999999968
Info: NONBONDED TABLE R-SQUARED SPACING: 0.0625
Info: NONBONDED TABLE SIZE: 705 POINTS
TCL: Setting parameter alchLambda2 to 0.1499999999999997
Info: NONBONDED TABLE R-SQUARED SPACING: 0.0625
Info: NONBONDED TABLE SIZE: 705 POINTS
TCL: Running for 1500000 steps
ETITLE: TS BOND ANGLE DIHED IMPRP ELECT VDW BOUNDARY MISC KINETIC TOTAL TEMP POTENTIAL TOTALAVG TEMPAVG PRESSURE GPRESSURE VOLUME PRESSAVG GPRESSAVG
ENERGY: 0 9.5857 15.1952 22.5523 0.0000 -10441.4784 1352.7145 0.0000 0.0000 1805.6126 -7235.8180 311.4932 -9041.4306 -7235.8180 311.4932 -950.1945 -875.6864 30228.0458 -950.1945 -875.6864
ENERGY: 300000 10.2456 21.3986 25.3070 0.0000 -10405.7035 1348.7128 0.0000 0.0000 1714.1918 -7285.8476 295.7218 -9000.0394 -7229.0892 304.8171 -760.7582 -713.3920 29840.8304 -180.6492 -125.2602
ENERGY: 600000 5.4460 20.6255 27.6577 0.0000 -10572.2279 1532.3826 0.0000 0.0000 1789.0171 -7197.0991 308.6302 -8986.1162 -7233.4867 303.2782 918.5874 981.3083 29618.2008 29.7311 88.3797
ENERGY: 900000 9.4722 14.3577 25.7595 0.0000 -10383.9062 1391.4925 0.0000 0.0000 1698.2146 -7244.6098 292.9655 -8942.8244 -7221.7656 301.9645 -22.8182 -29.8473 29850.0887 -58.1444 -10.1543
ENERGY: 1200000 7.3958 18.9240 25.4468 0.0000 -10466.0491 1425.3229 0.0000 0.0000 1720.3523 -7268.6072 296.7846 -8988.9595 -7230.7068 301.7662 53.5206 126.4288 29568.3761 -6.6910 43.0713
ENERGY: 1500000 9.1114 18.2675 23.4053 0.0000 -10392.7546 1417.3376 0.0000 0.0000 1735.9949 -7188.6380 299.4832 -8924.6328 -7222.3146 302.0368 -45.6402 35.0129 30094.6607 34.4725 92.3968
TCL: Running FEP window  18: Lambda1 0.1499999999999997 Lambda2 0.09999999999999969 [dLambda -0.05 ]
TCL: Setting parameter firsttimestep to 0
TCL: Setting parameter alchLambda to 0.1499999999999997
Info: NONBONDED TABLE R-SQUARED SPACING: 0.0625
Info: NONBONDED TABLE SIZE: 705 POINTS
TCL: Setting parameter alchLambda2 to 0.09999999999999969
Info: NONBONDED TABLE R-SQUARED SPACING: 0.0625
Info: NONBONDED TABLE SIZE: 705 POINTS
TCL: Running for 1500000 steps
ETITLE: TS BOND ANGLE DIHED IMPRP ELECT VDW BOUNDARY MISC KINETIC TOTAL TEMP POTENTIAL TOTALAVG TEMPAVG PRESSURE GPRESSURE VOLUME PRESSAVG GPRESSAVG
ENERGY: 0 9.1114 18.2675 23.4053 0.0000 -10392.7542 1417.6073 0.0000 0.0000 1735.1619 -7189.2009 299.3395 -8924.3628 -7189.2009 299.3395 -49.9096 26.0079 30094.6607 -49.9096 26.0079
ENERGY: 300000 13.7363 19.0185 20.8763 0.0000 -10534.7071 1458.6523 0.0000 0.0000 1716.7966 -7305.6272 296.1712 -9022.4238 -7221.6474 301.8598 453.9967 472.3228 29308.8128 178.2037 241.4974
ENERGY: 600000 5.2985 17.5977 25.0047 0.0000 -10421.3402 1447.8329 0.0000 0.0000 1719.5189 -7206.0874 296.6408 -8925.6063 -7227.2475 299.8282 465.3981 599.2475 29908.4599 -98.3327 -19.4752
ENERGY: 900000 4.4021 22.9284 23.1439 0.0000 -10438.2768 1429.1568 0.0000 0.0000 1695.5050 -7263.1406 292.4981 -8958.6455 -7242.5562 298.9723 -20.4229 23.4624 30127.2634 -128.8511 -52.4708
ENERGY: 1200000 6.9395 17.9690 25.4039 0.0000 -10359.9664 1409.6413 0.0000 0.0000 1797.6712 -7102.3415 310.1232 -8900.0127 -7233.2727 299.8229 303.7987 320.5609 29677.9563 -76.7204 -10.2654
ENERGY: 1500000 10.7626 21.4190 24.4043 0.0000 -10394.2037 1425.0292 0.0000 0.0000 1811.8389 -7100.7498 312.5673 -8912.5887 -7226.9934 300.6964 487.9297 489.3258 29486.3890 -53.6781 10.9666
TCL: Running FEP window  19: Lambda1 0.09999999999999969 Lambda2 0.049999999999999684 [dLambda -0.05 ]
TCL: Setting parameter firsttimestep to 0
TCL: Setting parameter alchLambda to 0.09999999999999969
Info: NONBONDED TABLE R-SQUARED SPACING: 0.0625
Info: NONBONDED TABLE SIZE: 705 POINTS
TCL: Setting parameter alchLambda2 to 0.049999999999999684
Info: NONBONDED TABLE R-SQUARED SPACING: 0.0625
Info: NONBONDED TABLE SIZE: 705 POINTS
TCL: Running for 1500000 steps
ETITLE: TS BOND ANGLE DIHED IMPRP ELECT VDW BOUNDARY MISC KINETIC TOTAL TEMP POTENTIAL TOTALAVG TEMPAVG PRESSURE GPRESSURE VOLUME PRESSAVG GPRESSAVG
ENERGY: 0 10.7626 21.4190 24.4043 0.0000 -10394.2038 1424.4559 0.0000 0.0000 1810.9619 -7102.2002 312.4160 -8913.1620 -7102.2002 312.4160 392.7930 481.3540 29486.3890 392.7930 481.3540
ENERGY: 300000 10.4970 26.8526 22.2288 0.0000 -10351.1001 1387.0082 0.0000 0.0000 1797.5870 -7106.9265 310.1087 -8904.5136 -7159.2497 307.7783 -257.1614 -176.7925 29714.2441 -102.4829 -57.3159
ENERGY: 600000 4.7536 15.4426 22.4743 0.0000 -10608.9284 1466.5617 0.0000 0.0000 1746.2556 -7353.4407 301.2533 -9099.6963 -7219.3716 304.2088 274.4460 372.6508 29249.5158 86.2706 141.5964
ENERGY: 900000 9.0425 18.7978 27.9029 0.0000 -10525.3014 1501.3640 0.0000 0.0000 1686.6396 -7281.5546 290.9687 -8968.1942 -7216.4572 304.1056 1006.5007 1102.6770 28884.6317 122.3672 184.3001
ENERGY: 1200000 9.7943 24.3930 23.4843 0.0000 -10210.9150 1227.1677 0.0000 0.0000 1757.0889 -7168.9866 303.1222 -8926.0756 -7221.1463 303.6339 -1709.6902 -1648.2353 30164.4065 -49.6912 16.3611
ENERGY: 1500000 14.5405 21.3680 26.1063 0.0000 -10348.2211 1392.6610 0.0000 0.0000 1775.6266 -7117.9186 306.3202 -8893.5453 -7220.4142 303.1859 74.6083 120.0543 29463.3226 -15.0224 46.4641
TCL: Running FEP window  20: Lambda1 0.049999999999999684 Lambda2 0.0    [dLambda -0.049999999999999684]
TCL: Setting parameter firsttimestep to 0
TCL: Setting parameter alchLambda to 0.049999999999999684
Info: NONBONDED TABLE R-SQUARED SPACING: 0.0625
Info: NONBONDED TABLE SIZE: 705 POINTS
TCL: Setting parameter alchLambda2 to 0.0
Info: NONBONDED TABLE R-SQUARED SPACING: 0.0625
Info: NONBONDED TABLE SIZE: 705 POINTS
TCL: Running for 1500000 steps
ETITLE: TS BOND ANGLE DIHED IMPRP ELECT VDW BOUNDARY MISC KINETIC TOTAL TEMP POTENTIAL TOTALAVG TEMPAVG PRESSURE GPRESSURE VOLUME PRESSAVG GPRESSAVG
ENERGY: 0 14.5405 21.3680 26.1063 0.0000 -10348.2195 1392.5782 0.0000 0.0000 1774.7774 -7118.8490 306.1737 -8893.6265 -7118.8490 306.1737 48.9585 111.9939 29463.3226 48.9585 111.9939
ENERGY: 300000 9.6425 17.4127 27.8544 0.0000 -10432.9946 1453.4446 0.0000 0.0000 1726.3113 -7198.3291 297.8126 -8924.6404 -7224.6641 300.0954 366.8409 465.4463 29591.5076 -168.6739 -88.8763
ENERGY: 600000 4.8256 15.1797 27.9099 0.0000 -10368.7736 1349.8153 0.0000 0.0000 1750.8074 -7220.2357 302.0385 -8971.0431 -7191.7059 302.5451 -559.3311 -481.0267 29724.3100 -400.2587 -329.8928
ENERGY: 900000 6.2449 14.7055 29.3778 0.0000 -10530.0891 1440.6092 0.0000 0.0000 1745.1276 -7294.0240 301.0587 -9039.1516 -7217.4797 301.9992 -83.9305 -38.7156 29616.2649 -194.4537 -137.4541
ENERGY: 1200000 6.9433 21.7268 26.6185 0.0000 -10393.2365 1347.1626 0.0000 0.0000 1715.4026 -7275.3827 295.9307 -8990.7853 -7229.4802 302.0552 -657.7099 -596.2255 29796.9850 -253.8569 -198.3970
ENERGY: 1500000 9.0491 17.3723 24.2978 0.0000 -10460.6032 1458.1608 0.0000 0.0000 1719.7459 -7231.9772 296.6800 -8951.7232 -7236.1387 300.7068 388.2176 411.0452 29731.3097 -133.6894 -77.1186
TCL: Exiting due to exit command.
