Info: SIMULATION PARAMETERS:
Info: TIMESTEP               2
Info: NUMBER OF STEPS        0
Info: STEPS PER CYCLE        10
Info: PERIODIC CELL BASIS 1  30.8791 0 0
Info: PERIODIC CELL BASIS 2  0 31.5574 0
Info: PERIODIC CELL BASIS 3  0 0 31.508
Info: PERIODIC CELL CENTER   0 0 0
Info: WRAPPING WATERS AROUND PERIODIC BOUNDARIES ON OUTPUT.
Info: WRAPPING ALL CLUSTERS AROUND PERIODIC BOUNDARIES ON OUTPUT.
Info: FIRST LDB TIMESTEP     50
Info: LAST LDB TIMESTEP     -1
Info: HOM BACKGROUND SCALING 1
Info: PME BACKGROUND SCALING 1
Info: MIN ATOMS PER PATCH    40
Info: EMPTY PATCH LOAD       40 ATOMS
Info: VELOCITY FILE          mobley_9741965_equil.vel
Info: CENTER OF MASS MOVING INITIALLY? NO
Info: DIELECTRIC             1
Info: EXCLUDE                SCALED ONE-FOUR
Info: 1-4 ELECTROSTATICS SCALED BY 0.833333
Info: MODIFIED 1-4 VDW PARAMETERS WILL BE USED
Info: DCD FILENAME           mobley_9741965_prod.dcd
Info: DCD FREQUENCY          100000
Info: DCD FIRST STEP         100000
Info: DCD FILE WILL CONTAIN UNIT CELL DATA
Info: XST FILENAME           mobley_9741965_prod.xst
Info: XST FREQUENCY          100000
Info: NO VELOCITY DCD OUTPUT
Info: NO FORCE DCD OUTPUT
Info: OUTPUT FILENAME        mobley_9741965_prod
Info: BINARY OUTPUT FILES WILL BE USED
Info: RESTART FILENAME       mobley_9741965_prod.restart
Info: RESTART FREQUENCY      100000
Info: BINARY RESTART FILES WILL BE USED
Info: CUTOFF                 9
Info: PAIRLIST DISTANCE      11
Info: PAIRLIST SHRINK RATE   0.01
Info: PAIRLIST GROW RATE     0.01
Info: PAIRLIST TRIGGER       0.3
Info: PAIRLISTS PER CYCLE    2
Info: PAIRLISTS ENABLED
Info: MARGIN                 2
Info: HYDROGEN GROUP CUTOFF  2.5
Info: PATCH DIMENSION        15.5
Info: ENERGY OUTPUT STEPS    100000
Info: ENERGY EVALUATION STEPS    100000
Info: OUTPUT ENERGY PRECISION 4
Info: CROSSTERM ENERGY INCLUDED IN DIHEDRAL
Info: TIMING OUTPUT STEPS    1000000
Info: PRESSURE OUTPUT STEPS  100000
Info: ALCHEMICAL FEP ON
Info: FEP CURRENT LAMBDA VALUE     0
Info: FEP COMPARISON LAMBDA VALUE  0.05
Info: FEP INTRA-ALCHEMICAL NON-BONDED INTERACTIONS WILL BE RETAINED
Info: FEP INTRA-ALCHEMICAL BONDED INTERACTIONS WILL BE RETAINED
Info: FEP VDW SHIFTING COEFFICIENT 5
Info: FEP ELEC. ACTIVE FOR ANNIHILATED PARTICLES BETWEEN LAMBDA = 0 AND LAMBDA = 0.5
Info: FEP ELEC. ACTIVE FOR EXNIHILATED PARTICLES BETWEEN LAMBDA = 0.5 AND LAMBDA = 1
Info: FEP VDW ACTIVE FOR ANNIHILATED PARTICLES BETWEEN LAMBDA = 0 AND LAMBDA = 1
Info: FEP VDW ACTIVE FOR EXNIHILATED PARTICLES BETWEEN LAMBDA = 0 AND LAMBDA = 1
Info: FEP BOND ACTIVE FOR ANNIHILATED PARTICLES BETWEEN LAMBDA = 1 AND LAMBDA = 1
Info: FEP BOND ACTIVE FOR EXNIHILATED PARTICLES BETWEEN LAMBDA = 0 AND LAMBDA = 0
Info: LANGEVIN DYNAMICS ACTIVE
Info: LANGEVIN TEMPERATURE   300
Info: LANGEVIN USING BBK INTEGRATOR
Info: LANGEVIN DAMPING COEFFICIENT IS 1 INVERSE PS
Info: LANGEVIN DYNAMICS APPLIED TO HYDROGENS
Info: LANGEVIN PISTON PRESSURE CONTROL ACTIVE
Info:        TARGET PRESSURE IS 1.01325 BAR
Info:     OSCILLATION PERIOD IS 50 FS
Info:             DECAY TIME IS 25 FS
Info:     PISTON TEMPERATURE IS 300 K
Info:       PRESSURE CONTROL IS GROUP-BASED
Info:    INITIAL STRAIN RATE IS 0.000184576 0.000184576 0.000184576
Info:       CELL FLUCTUATION IS ISOTROPIC
Info: PARTICLE MESH EWALD (PME) ACTIVE
Info: PME TOLERANCE               1e-06
Info: PME EWALD COEFFICIENT       0.348832
Info: PME INTERPOLATION ORDER     4
Info: PME GRID DIMENSIONS         32 32 32
Info: PME MAXIMUM GRID SPACING    1
Info: PME CALCULATION WILL BE PERFORMED ON GPU
Info: FULL ELECTROSTATIC EVALUATION FREQUENCY      2
Info: USING VERLET I (r-RESPA) MTS SCHEME.
Info: C1 SPLITTING OF LONG RANGE ELECTROSTATICS
Info: PLACING ATOMS IN PATCHES BY HYDROGEN GROUPS
Info: RIGID BONDS TO HYDROGEN : ALL
Info:         ERROR TOLERANCE : 1e-08
Info:          MAX ITERATIONS : 100
Info: RIGID WATER USING SETTLE ALGORITHM
Info: RANDOM NUMBER SEED     1744055759
Info: USE HYDROGEN BONDS?    NO
Info: Using AMBER format force field!
Info: AMBER PARM FILE        mobley_9741965.prmtop
Info: COORDINATE PDB         mobley_9741965.pdb
Info: Exclusions will be read from PARM file!
Info: SCNB (VDW SCALING)     2
Info: USING ARITHMETIC MEAN TO COMBINE L-J SIGMA PARAMETERS
Info: BINARY COORDINATES     mobley_9741965_equil.coor
Info: SUMMARY OF PARAMETERS:
Info: 8 BONDS
Info: 10 ANGLES
Info:   10 HARMONIC
Info:   0 COSINE-BASED
Info: 9 DIHEDRAL
Info: 0 IMPROPER
Info: 0 CROSSTERM
Info: 0 VDW
Info: 36 VDW_PAIRS
Info: 0 NBTHOLE_PAIRS
Info: To read alchdata from file: mobley_9741965.pdb
Info: To read alchflag data from column: 5
Info: STRUCTURE SUMMARY:
Info: 2990 ATOMS
Info: 2989 BONDS
Info: 32 ANGLES
Info: 46 DIHEDRALS
Info: 0 IMPROPERS
Info: 0 CROSSTERMS
Info: 3058 EXCLUSIONS
Info: 2978 RIGID BONDS
Info: ALCH: 0 ATOMS TO DISAPPEAR IN FINAL STATE
Info: ALCH: 20 ATOMS TO APPEAR IN FINAL STATE
Info: 5992 DEGREES OF FREEDOM
Info: 1002 HYDROGEN GROUPS
Info: 4 ATOMS IN LARGEST HYDROGEN GROUP
Info: 1002 MIGRATION GROUPS
Info: 4 ATOMS IN LARGEST MIGRATION GROUP
Info: TOTAL MASS = 18016 amu
Info: TOTAL CHARGE = -4.47035e-08 e
Info: MASS DENSITY = 0.974386 g/cm^3
Info: ATOM DENSITY = 0.0973836 atoms/A^3
Info: ADDED 0 IMPLICIT EXCLUSIONS
Info: NONBONDED TABLE R-SQUARED SPACING: 0.0625
Info: NONBONDED TABLE SIZE: 705 POINTS
Info: REMOVING COM VELOCITY -0.00827967 -0.234666 0.0724269
Info: Use 3D box decompostion in PME FFT.
Info: Updated CUDA force table with 4096 elements.
Info: Updated CUDA LJ table with 8 x 8 elements.
Info: Found 21 unique exclusion lists needing 60 bytes
TCL: Running for 1500000 steps
ETITLE: TS BOND ANGLE DIHED IMPRP ELECT VDW BOUNDARY MISC KINETIC TOTAL TEMP POTENTIAL TOTALAVG TEMPAVG PRESSURE GPRESSURE VOLUME PRESSAVG GPRESSAVG
ENERGY: 0 0.8260 10.3645 5.2376 0.0000 -10766.5676 1393.9618 0.0000 0.0000 1789.1132 -7567.0646 300.5082 -9356.1778 -7567.0646 300.5082 -481.3250 -396.0328 30703.3314 -481.3250 -396.0328
ENERGY: 300000 1.7903 14.6988 5.0036 0.0000 -10887.7003 1469.6919 0.0000 0.0000 1814.2409 -7582.2749 304.7288 -9396.5158 -7597.5818 298.2793 -165.1037 -73.8353 30762.5149 -332.2504 -247.5507
ENERGY: 600000 6.0521 10.6197 4.9627 0.0000 -10758.1253 1375.2625 0.0000 0.0000 1732.3992 -7628.8291 290.9823 -9361.2283 -7592.0376 297.1555 -695.9644 -669.7043 30544.9762 -168.1462 -96.1489
ENERGY: 900000 5.2979 7.4435 5.4148 0.0000 -10848.8461 1415.5970 0.0000 0.0000 1706.5318 -7708.5611 286.6375 -9415.0929 -7597.2972 296.7325 -459.4536 -359.7603 30084.9486 -92.7004 -18.8962
ENERGY: 1200000 8.8672 10.7089 5.1226 0.0000 -10917.8349 1504.1576 0.0000 0.0000 1800.8163 -7588.1622 302.4740 -9388.9786 -7596.8573 297.2675 327.8857 439.0205 30192.6499 -90.1642 -13.0026
ENERGY: 1500000 1.0223 12.4176 5.3335 0.0000 -10784.6028 1411.8962 0.0000 0.0000 1782.2288 -7571.7044 299.3519 -9353.9332 -7605.1378 296.9937 -358.1476 -338.5224 30547.8214 -55.3811 14.4330
TCL: Running FEP window   2: Lambda1 0.05   Lambda2 0.1    [dLambda 0.05  ]
TCL: Setting parameter firsttimestep to 0
TCL: Setting parameter alchLambda to 0.05
Info: NONBONDED TABLE R-SQUARED SPACING: 0.0625
Info: NONBONDED TABLE SIZE: 705 POINTS
TCL: Setting parameter alchLambda2 to 0.1
Info: NONBONDED TABLE R-SQUARED SPACING: 0.0625
Info: NONBONDED TABLE SIZE: 705 POINTS
TCL: Running for 1500000 steps
ETITLE: TS BOND ANGLE DIHED IMPRP ELECT VDW BOUNDARY MISC KINETIC TOTAL TEMP POTENTIAL TOTALAVG TEMPAVG PRESSURE GPRESSURE VOLUME PRESSAVG GPRESSAVG
ENERGY: 0 1.0223 12.4176 5.3335 0.0000 -10784.6010 1413.4496 0.0000 0.0000 1781.3208 -7571.0572 299.1994 -9352.3780 -7571.0572 299.1994 -402.4614 -334.1844 30547.8214 -402.4614 -334.1844
ENERGY: 300000 3.3729 6.6690 4.1690 0.0000 -10780.1737 1471.8712 0.0000 0.0000 1747.0159 -7547.0758 293.4374 -9294.0917 -7561.3648 296.7033 109.7553 159.0432 30966.4797 106.9750 154.2475
ENERGY: 600000 3.4521 4.9776 5.9496 0.0000 -10824.0976 1410.4079 0.0000 0.0000 1756.3223 -7642.9881 295.0005 -9399.3104 -7581.0996 298.4666 -711.4856 -707.2791 31061.9900 -174.5905 -117.1258
ENERGY: 900000 3.4977 9.3338 7.0236 0.0000 -10830.6639 1458.4786 0.0000 0.0000 1784.3609 -7567.9694 299.7100 -9352.3303 -7572.5655 298.9163 -182.8192 -163.0604 30686.3432 -138.3372 -82.4445
ENERGY: 1200000 7.6632 6.2489 5.6494 0.0000 -10791.9667 1430.3044 0.0000 0.0000 1730.1834 -7611.9173 290.6101 -9342.1007 -7579.4860 298.3989 -418.8854 -306.9436 30591.7199 -215.1230 -159.5958
ENERGY: 1500000 3.0899 6.2776 5.6750 0.0000 -10789.0160 1406.0176 0.0000 0.0000 1782.6597 -7585.2961 299.4243 -9367.9558 -7581.6801 298.2047 -313.4371 -243.2651 30633.0579 -257.5188 -200.7470
TCL: Running FEP window   3: Lambda1 0.1    Lambda2 0.15000000000000002 [dLambda 0.05000000000000002]
TCL: Setting parameter firsttimestep to 0
TCL: Setting parameter alchLambda to 0.1
Info: NONBONDED TABLE R-SQUARED SPACING: 0.0625
Info: NONBONDED TABLE SIZE: 705 POINTS
TCL: Setting parameter alchLambda2 to 0.15000000000000002
Info: NONBONDED TABLE R-SQUARED SPACING: 0.0625
Info: NONBONDED TABLE SIZE: 705 POINTS
TCL: Running for 1500000 steps
ETITLE: TS BOND ANGLE DIHED IMPRP ELECT VDW BOUNDARY MISC KINETIC TOTAL TEMP POTENTIAL TOTALAVG TEMPAVG PRESSURE GPRESSURE VOLUME PRESSAVG GPRESSAVG
ENERGY: 0 3.0899 6.2776 5.6750 0.0000 -10789.0181 1407.4587 0.0000 0.0000 1781.7277 -7584.7891 299.2677 -9366.5169 -7584.7891 299.2677 -320.7291 -239.2180 30633.0579 -320.7291 -239.2180
ENERGY: 300000 2.8288 11.1000 6.3005 0.0000 -10693.4095 1370.0178 0.0000 0.0000 1782.2019 -7520.9604 299.3474 -9303.1623 -7598.3872 297.9807 -778.5797 -731.6440 31035.2270 -468.4406 -395.4675
ENERGY: 600000 2.6109 5.4521 6.5373 0.0000 -10836.2026 1422.6397 0.0000 0.0000 1811.2285 -7587.7340 304.2229 -9398.9626 -7584.3742 300.5451 -265.8433 -268.4370 30333.1115 -262.5690 -204.1210
ENERGY: 900000 4.9382 10.2749 5.4659 0.0000 -10825.5934 1451.0030 0.0000 0.0000 1793.2338 -7560.6776 301.2004 -9353.9114 -7586.9415 301.1539 -273.1563 -139.0763 30736.1450 -189.7223 -130.8641
ENERGY: 1200000 1.9991 5.7953 6.8322 0.0000 -10824.5758 1465.4665 0.0000 0.0000 1741.4322 -7603.0505 292.4995 -9344.4827 -7573.1415 300.0181 207.1975 267.6365 30511.0418 -128.7124 -66.0457
ENERGY: 1500000 5.9096 14.0615 5.2281 0.0000 -10905.3452 1479.2486 0.0000 0.0000 1756.0210 -7644.8765 294.9499 -9400.8975 -7579.3485 299.3160 -103.0595 -111.5222 30712.7666 -141.7699 -87.4572
TCL: Running FEP window   4: Lambda1 0.15000000000000002 Lambda2 0.2    [dLambda 0.04999999999999999]
TCL: Setting parameter firsttimestep to 0
TCL: Setting parameter alchLambda to 0.15000000000000002
Info: NONBONDED TABLE R-SQUARED SPACING: 0.0625
Info: NONBONDED TABLE SIZE: 705 POINTS
TCL: Setting parameter alchLambda2 to 0.2
Info: NONBONDED TABLE R-SQUARED SPACING: 0.0625
Info: NONBONDED TABLE SIZE: 705 POINTS
TCL: Running for 1500000 steps
ETITLE: TS BOND ANGLE DIHED IMPRP ELECT VDW BOUNDARY MISC KINETIC TOTAL TEMP POTENTIAL TOTALAVG TEMPAVG PRESSURE GPRESSURE VOLUME PRESSAVG GPRESSAVG
ENERGY: 0 5.9096 14.0615 5.2281 0.0000 -10905.3454 1480.3603 0.0000 0.0000 1755.1247 -7644.6613 294.7994 -9399.7860 -7644.6613 294.7994 -187.5799 -102.0266 30712.7666 -187.5799 -102.0266
ENERGY: 300000 2.6791 10.5668 5.0936 0.0000 -10841.1510 1484.7064 0.0000 0.0000 1770.9785 -7567.1265 297.4623 -9338.1050 -7585.1348 298.5171 452.1822 410.4196 30775.0502 102.2872 137.3603
ENERGY: 600000 1.5878 7.8587 4.4353 0.0000 -10817.2840 1435.0814 0.0000 0.0000 1774.9579 -7593.3628 298.1307 -9368.3207 -7593.7599 299.8981 -326.7358 -249.5329 30973.9694 84.9312 153.4336
ENERGY: 900000 2.5704 6.4148 7.0924 0.0000 -10825.2049 1474.4893 0.0000 0.0000 1778.0871 -7556.5509 298.6562 -9334.6380 -7595.0654 300.5987 226.1949 259.2925 30628.9583 55.2796 119.0478
ENERGY: 1200000 4.3967 7.3460 5.3865 0.0000 -10639.3499 1329.7790 0.0000 0.0000 1788.7227 -7503.7191 300.4427 -9292.4417 -7576.0626 301.0417 -1092.5028 -1042.1793 31337.9651 -65.1701 -5.9517
ENERGY: 1500000 5.0150 7.8199 5.6828 0.0000 -10824.6693 1461.8308 0.0000 0.0000 1808.5519 -7535.7688 303.7733 -9344.3208 -7569.5448 301.8359 -105.1706 -77.7585 30724.2225 -97.2990 -38.6843
TCL: Running FEP window   5: Lambda1 0.2    Lambda2 0.25   [dLambda 0.04999999999999999]
TCL: Setting parameter firsttimestep to 0
TCL: Setting parameter alchLambda to 0.2
Info: NONBONDED TABLE R-SQUARED SPACING: 0.0625
Info: NONBONDED TABLE SIZE: 705 POINTS
TCL: Setting parameter alchLambda2 to 0.25
Info: NONBONDED TABLE R-SQUARED SPACING: 0.0625
Info: NONBONDED TABLE SIZE: 705 POINTS
TCL: Running for 1500000 steps
ETITLE: TS BOND ANGLE DIHED IMPRP ELECT VDW BOUNDARY MISC KINETIC TOTAL TEMP POTENTIAL TOTALAVG TEMPAVG PRESSURE GPRESSURE VOLUME PRESSAVG GPRESSAVG
ENERGY: 0 5.0150 7.8199 5.6828 0.0000 -10824.6697 1460.9724 0.0000 0.0000 1807.6717 -7537.5079 303.6254 -9345.1797 -7537.5079 303.6254 -158.8685 -76.0201 30724.2225 -158.8685 -76.0201
ENERGY: 300000 4.6441 10.2562 7.0956 0.0000 -10782.1887 1433.0831 0.0000 0.0000 1835.7311 -7491.3786 308.3384 -9327.1096 -7582.8553 302.4236 -306.7990 -216.6843 30702.7498 62.8897 139.8454
ENERGY: 600000 3.2574 8.1223 3.9017 0.0000 -10770.9944 1517.7332 0.0000 0.0000 1763.4305 -7474.5493 296.1945 -9237.9798 -7556.9168 301.6867 606.5322 699.8163 30917.2583 198.8288 282.0413
ENERGY: 900000 5.1183 8.4111 5.3705 0.0000 -10795.2476 1405.6645 0.0000 0.0000 1769.6608 -7601.0224 297.2409 -9370.6832 -7575.8850 300.7598 -717.6418 -679.3704 31065.8132 17.7278 95.4440
ENERGY: 1200000 5.3862 8.3563 6.9175 0.0000 -10934.9775 1509.0337 0.0000 0.0000 1751.8678 -7653.4159 294.2523 -9405.2838 -7591.3293 300.0706 162.4185 233.2734 30464.5475 98.1993 176.5443
ENERGY: 1500000 0.8302 14.4648 4.3141 0.0000 -10786.7077 1419.2922 0.0000 0.0000 1781.9683 -7565.8379 299.3082 -9347.8062 -7579.3658 300.0653 -342.1391 -287.7838 30608.3734 79.4632 154.8380
TCL: Running FEP window   6: Lambda1 0.25   Lambda2 0.3    [dLambda 0.04999999999999999]
TCL: Setting parameter firsttimestep to 0
TCL: Setting parameter alchLambda to 0.25
Info: NONBONDED TABLE R-SQUARED SPACING: 0.0625
Info: NONBONDED TABLE SIZE: 705 POINTS
TCL: Setting parameter alchLambda2 to 0.3
Info: NONBONDED TABLE R-SQUARED SPACING: 0.0625
Info: NONBONDED TABLE SIZE: 705 POINTS
TCL: Running for 1500000 steps
ETITLE: TS BOND ANGLE DIHED IMPRP ELECT VDW BOUNDARY MISC KINETIC TOTAL TEMP POTENTIAL TOTALAVG TEMPAVG PRESSURE GPRESSURE VOLUME PRESSAVG GPRESSAVG
ENERGY: 0 0.8302 14.4648 4.3141 0.0000 -10786.7083 1420.2377 0.0000 0.0000 1781.0750 -7565.7864 299.1581 -9346.8614 -7565.7864 299.1581 -350.5304 -275.3839 30608.3734 -350.5304 -275.3839
ENERGY: 300000 2.8217 12.4953 4.8375 0.0000 -10756.6438 1393.6169 0.0000 0.0000 1809.1707 -7533.7018 303.8772 -9342.8724 -7525.9316 302.2635 -576.6953 -521.6024 31296.3759 -597.4172 -532.2525
ENERGY: 600000 3.2870 8.3338 9.7854 0.0000 -10965.2547 1564.4332 0.0000 0.0000 1761.6194 -7617.7959 295.8903 -9379.4153 -7552.4369 299.5050 616.3671 687.2212 30577.2611 -378.6771 -320.5212
ENERGY: 900000 5.2053 7.2164 4.6194 0.0000 -10788.2707 1403.8665 0.0000 0.0000 1854.4731 -7512.8901 311.4864 -9367.3632 -7572.1073 299.5931 -408.7765 -343.5413 30904.9239 -369.9506 -322.1797
ENERGY: 1200000 5.1583 13.7087 4.2180 0.0000 -10797.4182 1407.7160 0.0000 0.0000 1788.5722 -7578.0450 300.4174 -9366.6173 -7561.3009 299.4871 -731.0405 -643.7763 31059.6868 -449.1600 -396.7343
ENERGY: 1500000 2.9150 6.0443 6.1246 0.0000 -10846.5668 1487.4085 0.0000 0.0000 1828.5956 -7515.4788 307.1399 -9344.0744 -7555.8942 300.0978 295.7678 369.3047 30717.4708 -336.2744 -283.9024
TCL: Running FEP window   7: Lambda1 0.3    Lambda2 0.35   [dLambda 0.04999999999999999]
TCL: Setting parameter firsttimestep to 0
TCL: Setting parameter alchLambda to 0.3
Info: NONBONDED TABLE R-SQUARED SPACING: 0.0625
Info: NONBONDED TABLE SIZE: 705 POINTS
TCL: Setting parameter alchLambda2 to 0.35
Info: NONBONDED TABLE R-SQUARED SPACING: 0.0625
Info: NONBONDED TABLE SIZE: 705 POINTS
TCL: Running for 1500000 steps
ETITLE: TS BOND ANGLE DIHED IMPRP ELECT VDW BOUNDARY MISC KINETIC TOTAL TEMP POTENTIAL TOTALAVG TEMPAVG PRESSURE GPRESSURE VOLUME PRESSAVG GPRESSAVG
ENERGY: 0 2.9150 6.0443 6.1246 0.0000 -10846.5671 1487.8922 0.0000 0.0000 1827.6865 -7515.9045 306.9872 -9343.5910 -7515.9045 306.9872 304.9770 377.1978 30717.4708 304.9770 377.1978
ENERGY: 300000 7.1378 8.4833 5.5918 0.0000 -10909.7949 1460.3413 0.0000 0.0000 1823.2736 -7604.9671 306.2460 -9428.2406 -7595.8730 302.2902 -344.3155 -204.6567 30404.7246 41.8465 146.8580
ENERGY: 600000 4.4535 8.3162 6.4605 0.0000 -10887.1515 1548.4470 0.0000 0.0000 1809.9609 -7509.5134 304.0099 -9319.4742 -7583.8017 301.7457 1024.9685 1038.6951 30528.6827 191.3986 257.6036
ENERGY: 900000 3.2032 7.2978 5.1455 0.0000 -10784.2579 1446.3366 0.0000 0.0000 1795.6109 -7526.6638 301.5996 -9322.2747 -7565.1357 302.4061 268.8620 336.0405 30236.5152 190.1701 254.8606
ENERGY: 1200000 1.1554 9.9318 3.2940 0.0000 -10824.1789 1446.3726 0.0000 0.0000 1775.7443 -7587.6808 298.2628 -9363.4251 -7581.6222 301.2476 -63.4218 32.5576 30709.3975 162.6913 226.0165
ENERGY: 1500000 2.6490 10.1536 6.8670 0.0000 -10753.4265 1445.2296 0.0000 0.0000 1746.2872 -7542.2401 293.3150 -9288.5274 -7580.1781 300.8210 -91.5410 -66.3844 30862.4827 52.1460 107.5820
TCL: Running FEP window   8: Lambda1 0.35   Lambda2 0.39999999999999997 [dLambda 0.04999999999999999]
TCL: Setting parameter firsttimestep to 0
TCL: Setting parameter alchLambda to 0.35
Info: NONBONDED TABLE R-SQUARED SPACING: 0.0625
Info: NONBONDED TABLE SIZE: 705 POINTS
TCL: Setting parameter alchLambda2 to 0.39999999999999997
Info: NONBONDED TABLE R-SQUARED SPACING: 0.0625
Info: NONBONDED TABLE SIZE: 705 POINTS
TCL: Running for 1500000 steps
ETITLE: TS BOND ANGLE DIHED IMPRP ELECT VDW BOUNDARY MISC KINETIC TOTAL TEMP POTENTIAL TOTALAVG TEMPAVG PRESSURE GPRESSURE VOLUME PRESSAVG GPRESSAVG
ENERGY: 0 2.6489 10.1536 6.8670 0.0000 -10753.4277 1444.8754 0.0000 0.0000 1745.3926 -7543.4901 293.1647 -9288.8827 -7543.4901 293.1647 -147.2050 -61.5643 30862.4827 -147.2050 -61.5643
ENERGY: 300000 2.0426 7.1307 5.3806 0.0000 -10580.6144 1265.7986 0.0000 0.0000 1777.0942 -7523.1677 298.4895 -9300.2620 -7570.8287 298.4824 -1256.5637 -1217.8542 30649.5650 -653.8441 -600.2685
ENERGY: 600000 3.6307 10.9166 4.5229 0.0000 -10672.0369 1425.5167 0.0000 0.0000 1787.1521 -7440.2978 300.1789 -9227.4500 -7553.9507 299.5745 226.8349 248.6993 30359.3387 -328.6123 -279.6658
ENERGY: 900000 1.1596 9.7397 3.1816 0.0000 -10939.7652 1498.9962 0.0000 0.0000 1785.4614 -7641.2267 299.8949 -9426.6881 -7570.3516 301.3943 9.8871 82.5120 30808.9640 -301.2079 -243.4688
ENERGY: 1200000 6.5665 9.5575 5.2457 0.0000 -10749.9466 1420.0394 0.0000 0.0000 1783.2559 -7525.2816 299.5244 -9308.5375 -7559.1104 301.3643 -512.9376 -410.7570 31033.4602 -281.3498 -222.3048
ENERGY: 1500000 4.5015 10.5929 5.1313 0.0000 -10768.2990 1391.4521 0.0000 0.0000 1793.8627 -7562.7586 301.3060 -9356.6212 -7548.4824 301.2232 -532.2689 -466.7795 30786.3477 -217.9207 -158.5617
TCL: Running FEP window   9: Lambda1 0.39999999999999997 Lambda2 0.44999999999999996 [dLambda 0.04999999999999999]
TCL: Setting parameter firsttimestep to 0
TCL: Setting parameter alchLambda to 0.39999999999999997
Info: NONBONDED TABLE R-SQUARED SPACING: 0.0625
Info: NONBONDED TABLE SIZE: 705 POINTS
TCL: Setting parameter alchLambda2 to 0.44999999999999996
Info: NONBONDED TABLE R-SQUARED SPACING: 0.0625
Info: NONBONDED TABLE SIZE: 705 POINTS
TCL: Running for 1500000 steps
ETITLE: TS BOND ANGLE DIHED IMPRP ELECT VDW BOUNDARY MISC KINETIC TOTAL TEMP POTENTIAL TOTALAVG TEMPAVG PRESSURE GPRESSURE VOLUME PRESSAVG GPRESSAVG
ENERGY: 0 4.5015 10.5929 5.1313 0.0000 -10768.2993 1392.0360 0.0000 0.0000 1792.9651 -7563.0726 301.1552 -9356.0377 -7563.0726 301.1552 -527.1207 -455.9570 30786.3477 -527.1207 -455.9570
ENERGY: 300000 4.4996 11.8816 5.1983 0.0000 -10785.2556 1468.8608 0.0000 0.0000 1756.2957 -7538.5196 294.9961 -9294.8153 -7560.8493 300.1606 297.4890 409.8207 30798.0238 -130.9451 -43.0389
ENERGY: 600000 4.8999 9.6754 3.7219 0.0000 -10873.9507 1474.4755 0.0000 0.0000 1820.3983 -7560.7798 305.7630 -9381.1781 -7559.1569 299.7233 -30.4284 -7.8167 30928.0613 117.7552 187.6667
ENERGY: 900000 3.7833 8.6253 3.7313 0.0000 -10811.3479 1469.5977 0.0000 0.0000 1786.3781 -7539.2321 300.0489 -9325.6103 -7565.5334 300.1503 402.0801 435.9317 30533.8548 200.9373 266.6041
ENERGY: 1200000 3.8041 9.2849 4.7642 0.0000 -10805.0652 1427.1884 0.0000 0.0000 1820.3293 -7539.6943 305.7515 -9360.0236 -7562.8859 300.8124 -256.9880 -203.3057 30795.1302 102.2800 170.7139
ENERGY: 1500000 4.4018 10.5492 6.6038 0.0000 -10892.0721 1530.8945 0.0000 0.0000 1741.2922 -7598.3306 292.4760 -9339.6227 -7568.7608 300.1871 503.1579 589.4721 30633.5233 93.4838 161.9617
TCL: Running FEP window  10: Lambda1 0.44999999999999996 Lambda2 0.49999999999999994 [dLambda 0.04999999999999999]
TCL: Setting parameter firsttimestep to 0
TCL: Setting parameter alchLambda to 0.44999999999999996
Info: NONBONDED TABLE R-SQUARED SPACING: 0.0625
Info: NONBONDED TABLE SIZE: 705 POINTS
TCL: Setting parameter alchLambda2 to 0.49999999999999994
Info: NONBONDED TABLE R-SQUARED SPACING: 0.0625
Info: NONBONDED TABLE SIZE: 705 POINTS
TCL: Running for 1500000 steps
ETITLE: TS BOND ANGLE DIHED IMPRP ELECT VDW BOUNDARY MISC KINETIC TOTAL TEMP POTENTIAL TOTALAVG TEMPAVG PRESSURE GPRESSURE VOLUME PRESSAVG GPRESSAVG
ENERGY: 0 4.4018 10.5492 6.6038 0.0000 -10892.0724 1530.1470 0.0000 0.0000 1740.4101 -7599.9605 292.3278 -9340.3706 -7599.9605 292.3278 507.6974 589.8334 30633.5233 507.6974 589.8334
ENERGY: 300000 3.5785 6.2446 4.7207 0.0000 -10902.4985 1518.2807 0.0000 0.0000 1794.9723 -7574.7018 301.4924 -9369.6741 -7545.4608 300.0803 456.3439 487.8568 30872.1412 243.0787 296.5359
ENERGY: 600000 3.0202 12.8801 5.9532 0.0000 -10710.7100 1322.4855 0.0000 0.0000 1783.3437 -7583.0275 299.5392 -9366.3712 -7586.5691 299.7864 -790.7197 -679.2472 30450.0442 22.2138 95.5420
ENERGY: 900000 3.3801 11.2902 4.9729 0.0000 -10692.6338 1421.8420 0.0000 0.0000 1752.5742 -7498.5744 294.3710 -9251.1486 -7573.0840 299.4302 -221.5539 -145.8607 30899.8110 42.2152 107.3883
ENERGY: 1200000 1.9109 8.9921 5.1300 0.0000 -10845.7860 1395.6091 0.0000 0.0000 1815.4824 -7618.6615 304.9374 -9434.1439 -7573.5261 300.3287 -532.1035 -465.0095 30370.5118 -20.0576 44.3386
ENERGY: 1500000 4.0875 11.3011 5.4308 0.0000 -10808.0112 1431.0667 0.0000 0.0000 1747.5822 -7608.5430 293.5325 -9356.1252 -7580.5112 299.7140 -359.7079 -313.3635 31102.3994 -39.1513 25.8287
TCL: Running FEP window  11: Lambda1 0.49999999999999994 Lambda2 0.5499999999999999 [dLambda 0.04999999999999999]
TCL: Setting parameter firsttimestep to 0
TCL: Setting parameter alchLambda to 0.49999999999999994
Info: NONBONDED TABLE R-SQUARED SPACING: 0.0625
Info: NONBONDED TABLE SIZE: 705 POINTS
TCL: Setting parameter alchLambda2 to 0.5499999999999999
Info: NONBONDED TABLE R-SQUARED SPACING: 0.0625
Info: NONBONDED TABLE SIZE: 705 POINTS
TCL: Running for 1500000 steps
ETITLE: TS BOND ANGLE DIHED IMPRP ELECT VDW BOUNDARY MISC KINETIC TOTAL TEMP POTENTIAL TOTALAVG TEMPAVG PRESSURE GPRESSURE VOLUME PRESSAVG GPRESSAVG
ENERGY: 0 4.0875 11.3011 5.4308 0.0000 -10808.0109 1431.9450 0.0000 0.0000 1746.7177 -7608.5288 293.3873 -9355.2465 -7608.5288 293.3873 -373.9702 -297.0508 31102.3994 -373.9702 -297.0508
ENERGY: 300000 2.5287 10.8706 5.4422 0.0000 -10850.6690 1380.3508 0.0000 0.0000 1864.6018 -7586.8749 313.1877 -9451.4767 -7589.9275 300.8275 -651.7498 -578.6131 30874.4911 -114.3987 -35.5526
ENERGY: 600000 3.5677 9.1755 4.1357 0.0000 -10984.7468 1535.9948 0.0000 0.0000 1768.4763 -7663.3968 297.0420 -9431.8731 -7591.6378 299.2025 424.5690 513.3648 30503.2158 -123.8686 -43.1688
ENERGY: 900000 5.3464 11.3892 3.5744 0.0000 -10751.2111 1460.8078 0.0000 0.0000 1810.0308 -7460.0627 304.0217 -9270.0934 -7569.7545 299.7691 644.8403 694.3684 30382.6992 120.8970 190.7073
ENERGY: 1200000 2.5089 9.0728 5.8887 0.0000 -10926.7290 1507.7517 0.0000 0.0000 1828.8478 -7572.6591 307.1823 -9401.5068 -7555.5760 301.6606 476.1078 534.5313 30412.3658 143.2573 209.1068
ENERGY: 1500000 2.4599 12.0458 4.4038 0.0000 -10853.7000 1420.6638 0.0000 0.0000 1759.8680 -7654.2586 295.5961 -9414.1266 -7568.0125 300.6343 -438.3713 -337.1563 30749.6599 6.0746 72.6462
TCL: Running FEP window  12: Lambda1 0.5499999999999999 Lambda2 0.6    [dLambda 0.050000000000000044]
TCL: Setting parameter firsttimestep to 0
TCL: Setting parameter alchLambda to 0.5499999999999999
Info: NONBONDED TABLE R-SQUARED SPACING: 0.0625
Info: NONBONDED TABLE SIZE: 705 POINTS
TCL: Setting parameter alchLambda2 to 0.6
Info: NONBONDED TABLE R-SQUARED SPACING: 0.0625
Info: NONBONDED TABLE SIZE: 705 POINTS
TCL: Running for 1500000 steps
ETITLE: TS BOND ANGLE DIHED IMPRP ELECT VDW BOUNDARY MISC KINETIC TOTAL TEMP POTENTIAL TOTALAVG TEMPAVG PRESSURE GPRESSURE VOLUME PRESSAVG GPRESSAVG
ENERGY: 0 2.4599 12.0458 4.4038 0.0000 -10853.7670 1420.3183 0.0000 0.0000 1758.9741 -7655.5650 295.4459 -9414.5391 -7655.5650 295.4459 -408.9724 -333.4733 30749.6599 -408.9724 -333.4733
ENERGY: 300000 2.5095 11.7224 5.6019 0.0000 -10894.4691 1459.2041 0.0000 0.0000 1783.1371 -7632.2941 299.5045 -9415.4311 -7589.2783 301.2659 58.3430 23.5079 30248.7726 -125.5197 -107.8382
ENERGY: 600000 2.7568 13.5298 6.2110 0.0000 -10842.7693 1465.1550 0.0000 0.0000 1771.1794 -7583.9373 297.4960 -9355.1166 -7597.9403 300.0250 503.4816 476.0717 30526.6325 -134.0130 -104.0813
ENERGY: 900000 3.3728 11.5967 6.3597 0.0000 -10885.2672 1540.1160 0.0000 0.0000 1804.6142 -7519.2078 303.1119 -9323.8220 -7584.1413 300.3414 736.4048 829.2185 30759.6998 -49.0534 -6.2086
ENERGY: 1200000 4.0765 10.5840 6.6200 0.0000 -10821.7909 1389.7829 0.0000 0.0000 1861.7181 -7549.0094 312.7033 -9410.7276 -7578.6065 301.3798 -777.8721 -759.7174 31413.1466 -173.3397 -126.5352
ENERGY: 1500000 2.8259 8.7527 6.1973 0.0000 -10905.3451 1517.4022 0.0000 0.0000 1833.1974 -7536.9696 307.9128 -9370.1670 -7581.6717 301.4062 567.3258 667.3976 30484.0147 -121.0565 -72.0700
TCL: Running FEP window  13: Lambda1 0.6    Lambda2 0.65   [dLambda 0.050000000000000044]
TCL: Setting parameter firsttimestep to 0
TCL: Setting parameter alchLambda to 0.6
Info: NONBONDED TABLE R-SQUARED SPACING: 0.0625
Info: NONBONDED TABLE SIZE: 705 POINTS
TCL: Setting parameter alchLambda2 to 0.65
Info: NONBONDED TABLE R-SQUARED SPACING: 0.0625
Info: NONBONDED TABLE SIZE: 705 POINTS
TCL: Running for 1500000 steps
ETITLE: TS BOND ANGLE DIHED IMPRP ELECT VDW BOUNDARY MISC KINETIC TOTAL TEMP POTENTIAL TOTALAVG TEMPAVG PRESSURE GPRESSURE VOLUME PRESSAVG GPRESSAVG
ENERGY: 0 2.8259 8.7527 6.1973 0.0000 -10905.9511 1517.0460 0.0000 0.0000 1832.3074 -7538.8219 307.7634 -9371.1292 -7538.8219 307.7634 599.8300 675.4743 30484.0147 599.8300 675.4743
ENERGY: 300000 5.2694 6.8856 5.6723 0.0000 -10800.2752 1428.1819 0.0000 0.0000 1783.4252 -7570.8408 299.5529 -9354.2660 -7570.9172 300.5715 -430.7780 -328.8981 31002.7721 -128.9696 -63.7786
ENERGY: 600000 5.3996 13.4191 5.9706 0.0000 -10645.8301 1326.9537 0.0000 0.0000 1794.6621 -7499.4251 301.4403 -9294.0872 -7531.5455 302.1503 -652.1231 -627.2113 30817.2755 -220.5955 -155.3589
ENERGY: 900000 3.2992 13.2414 3.7200 0.0000 -10792.9216 1400.1722 0.0000 0.0000 1733.6151 -7638.8737 291.1865 -9372.4889 -7537.1650 301.7935 -354.3499 -265.1859 30606.3111 -197.9347 -128.2882
ENERGY: 1200000 4.2525 6.0325 10.1936 0.0000 -10806.7097 1461.1488 0.0000 0.0000 1816.1018 -7508.9804 305.0414 -9325.0822 -7537.5832 302.5325 403.9209 440.3483 30377.6934 6.0266 72.8430
ENERGY: 1500000 4.7458 10.1971 5.7028 0.0000 -10716.9880 1385.4751 0.0000 0.0000 1775.2862 -7535.5810 298.1858 -9310.8672 -7538.2017 302.2069 93.4578 114.0805 30452.2073 64.8929 132.3305
TCL: Running FEP window  14: Lambda1 0.65   Lambda2 0.7000000000000001 [dLambda 0.050000000000000044]
TCL: Setting parameter firsttimestep to 0
TCL: Setting parameter alchLambda to 0.65
Info: NONBONDED TABLE R-SQUARED SPACING: 0.0625
Info: NONBONDED TABLE SIZE: 705 POINTS
TCL: Setting parameter alchLambda2 to 0.7000000000000001
Info: NONBONDED TABLE R-SQUARED SPACING: 0.0625
Info: NONBONDED TABLE SIZE: 705 POINTS
TCL: Running for 1500000 steps
ETITLE: TS BOND ANGLE DIHED IMPRP ELECT VDW BOUNDARY MISC KINETIC TOTAL TEMP POTENTIAL TOTALAVG TEMPAVG PRESSURE GPRESSURE VOLUME PRESSAVG GPRESSAVG
ENERGY: 0 4.7458 10.1971 5.7028 0.0000 -10717.4395 1385.0762 0.0000 0.0000 1774.3945 -7537.3231 298.0360 -9311.7176 -7537.3231 298.0360 34.3234 125.7031 30452.2073 34.3234 125.7031
ENERGY: 300000 4.7569 7.2152 5.1802 0.0000 -10699.0336 1397.7406 0.0000 0.0000 1848.3838 -7435.7569 310.4636 -9284.1407 -7554.2461 300.2643 -330.8902 -283.2458 31103.8633 -183.5227 -115.0784
ENERGY: 600000 4.4823 7.7610 6.2052 0.0000 -10971.1585 1573.2148 0.0000 0.0000 1756.9435 -7622.5518 295.1049 -9379.4953 -7577.4810 298.8172 445.1752 495.6725 31158.5528 41.7190 88.4080
ENERGY: 900000 3.3640 10.6909 8.1063 0.0000 -10795.8739 1413.6810 0.0000 0.0000 1788.4426 -7571.5890 300.3956 -9360.0316 -7581.5963 297.8542 -287.8012 -198.4599 31007.3600 -54.1869 2.6006
ENERGY: 1200000 5.9471 6.7600 6.7020 0.0000 -10691.2236 1393.5542 0.0000 0.0000 1756.5424 -7521.7180 295.0375 -9278.2604 -7575.5588 297.8476 -519.9696 -527.6356 31657.4669 -99.8437 -49.5841
ENERGY: 1500000 4.5408 10.3430 5.2792 0.0000 -10856.5536 1523.5635 0.0000 0.0000 1754.9944 -7557.8327 294.7775 -9312.8271 -7572.2410 298.2362 275.1969 374.5889 30963.2625 -71.3992 -20.0192
TCL: Running FEP window  15: Lambda1 0.7000000000000001 Lambda2 0.7500000000000001 [dLambda 0.050000000000000044]
TCL: Setting parameter firsttimestep to 0
TCL: Setting parameter alchLambda to 0.7000000000000001
Info: NONBONDED TABLE R-SQUARED SPACING: 0.0625
Info: NONBONDED TABLE SIZE: 705 POINTS
TCL: Setting parameter alchLambda2 to 0.7500000000000001
Info: NONBONDED TABLE R-SQUARED SPACING: 0.0625
Info: NONBONDED TABLE SIZE: 705 POINTS
TCL: Running for 1500000 steps
ETITLE: TS BOND ANGLE DIHED IMPRP ELECT VDW BOUNDARY MISC KINETIC TOTAL TEMP POTENTIAL TOTALAVG TEMPAVG PRESSURE GPRESSURE VOLUME PRESSAVG GPRESSAVG
ENERGY: 0 4.5408 10.3430 5.2792 0.0000 -10857.1600 1522.9125 0.0000 0.0000 1754.1135 -7559.9710 294.6295 -9314.0845 -7559.9710 294.6295 289.5629 378.8862 30963.2625 289.5629 378.8862
ENERGY: 300000 2.5989 11.9960 4.9932 0.0000 -10982.2259 1544.9902 0.0000 0.0000 1767.1475 -7650.5002 296.8188 -9417.6477 -7587.5758 300.0970 863.4345 1014.6768 30179.3902 456.9729 538.4128
ENERGY: 600000 3.7749 15.3954 5.0184 0.0000 -10709.5762 1365.2868 0.0000 0.0000 1775.5232 -7544.5776 298.2256 -9320.1007 -7572.4234 298.4317 -566.3731 -431.7990 30911.0757 55.2312 137.8422
ENERGY: 900000 2.8890 8.6706 4.9732 0.0000 -10755.2695 1439.6853 0.0000 0.0000 1861.5251 -7437.5262 312.6709 -9299.0513 -7554.9977 299.6312 79.8224 131.2529 30809.9467 0.9368 81.3397
ENERGY: 1200000 2.8657 11.3982 6.9780 0.0000 -10842.2889 1445.8230 0.0000 0.0000 1751.2769 -7623.9470 294.1531 -9375.2240 -7575.4630 299.0286 65.6797 103.3214 30600.2674 88.9245 160.7317
ENERGY: 1500000 3.5183 11.2454 3.2513 0.0000 -10615.9754 1351.8705 0.0000 0.0000 1815.9405 -7430.1495 305.0143 -9246.0900 -7569.9896 298.8060 -826.6281 -757.0276 31435.1081 6.6122 77.5358
TCL: Running FEP window  16: Lambda1 0.7500000000000001 Lambda2 0.8000000000000002 [dLambda 0.050000000000000044]
TCL: Setting parameter firsttimestep to 0
TCL: Setting parameter alchLambda to 0.7500000000000001
Info: NONBONDED TABLE R-SQUARED SPACING: 0.0625
Info: NONBONDED TABLE SIZE: 705 POINTS
TCL: Setting parameter alchLambda2 to 0.8000000000000002
Info: NONBONDED TABLE R-SQUARED SPACING: 0.0625
Info: NONBONDED TABLE SIZE: 705 POINTS
TCL: Running for 1500000 steps
ETITLE: TS BOND ANGLE DIHED IMPRP ELECT VDW BOUNDARY MISC KINETIC TOTAL TEMP POTENTIAL TOTALAVG TEMPAVG PRESSURE GPRESSURE VOLUME PRESSAVG GPRESSAVG
ENERGY: 0 3.5183 11.2454 3.2513 0.0000 -10616.1607 1351.8831 0.0000 0.0000 1815.0696 -7431.1931 304.8680 -9246.2626 -7431.1931 304.8680 -822.5510 -743.5098 31435.1081 -822.5510 -743.5098
ENERGY: 300000 6.0062 8.5064 7.1387 0.0000 -10978.4816 1465.5153 0.0000 0.0000 1778.5967 -7712.7184 298.7419 -9491.3151 -7579.6962 300.2834 -179.6064 -94.7706 30400.7089 -277.4981 -203.9788
ENERGY: 600000 8.9662 10.4573 4.7432 0.0000 -10775.6060 1384.2083 0.0000 0.0000 1821.3805 -7545.8505 305.9280 -9367.2309 -7556.7752 302.8908 -471.5952 -494.2658 30882.8516 -140.5028 -92.5262
ENERGY: 900000 2.1088 11.2365 5.1237 0.0000 -10892.3487 1521.0637 0.0000 0.0000 1831.4954 -7521.3206 307.6270 -9352.8160 -7571.2030 302.3256 567.9362 616.4212 30794.2588 -190.2042 -138.8676
ENERGY: 1200000 2.4872 9.9695 6.3786 0.0000 -10868.3053 1490.3222 0.0000 0.0000 1769.7086 -7589.4393 297.2490 -9359.1478 -7569.1789 301.6684 258.0758 322.5925 30515.4258 -162.3734 -107.6757
ENERGY: 1500000 1.8363 5.9208 4.3875 0.0000 -10849.5565 1441.0785 0.0000 0.0000 1770.8556 -7625.4779 297.4416 -9396.3334 -7570.7351 302.2694 -197.4683 -163.2345 30982.7305 -137.6986 -82.0309
TCL: Running FEP window  17: Lambda1 0.8000000000000002 Lambda2 0.8500000000000002 [dLambda 0.050000000000000044]
TCL: Setting parameter firsttimestep to 0
TCL: Setting parameter alchLambda to 0.8000000000000002
Info: NONBONDED TABLE R-SQUARED SPACING: 0.0625
Info: NONBONDED TABLE SIZE: 705 POINTS
TCL: Setting parameter alchLambda2 to 0.8500000000000002
Info: NONBONDED TABLE R-SQUARED SPACING: 0.0625
Info: NONBONDED TABLE SIZE: 705 POINTS
TCL: Running for 1500000 steps
ETITLE: TS BOND ANGLE DIHED IMPRP ELECT VDW BOUNDARY MISC KINETIC TOTAL TEMP POTENTIAL TOTALAVG TEMPAVG PRESSURE GPRESSURE VOLUME PRESSAVG GPRESSAVG
ENERGY: 0 1.8363 5.9208 4.3875 0.0000 -10849.9752 1441.8932 0.0000 0.0000 1769.9839 -7625.9536 297.2952 -9395.9374 -7625.9536 297.2952 -235.2973 -137.3425 30982.7305 -235.2973 -137.3425
ENERGY: 300000 2.8974 10.7272 5.4413 0.0000 -10896.7281 1522.7131 0.0000 0.0000 1887.5484 -7467.4007 317.0419 -9354.9491 -7586.9535 299.7817 832.8237 871.9207 30294.3369 340.7938 386.0576
ENERGY: 600000 3.3365 7.7247 5.5960 0.0000 -10883.8217 1509.1338 0.0000 0.0000 1765.0806 -7592.9501 296.4716 -9358.0307 -7573.4892 299.8507 488.0407 554.2361 30788.0471 188.1545 234.9758
ENERGY: 900000 6.3246 11.0345 5.4290 0.0000 -10860.1799 1472.3745 0.0000 0.0000 1779.1781 -7585.8393 298.8395 -9365.0173 -7569.6578 302.4796 67.1815 94.3958 30772.9798 255.8170 300.4969
ENERGY: 1200000 4.9678 7.6687 5.2432 0.0000 -10783.7095 1446.0277 0.0000 0.0000 1762.6841 -7557.1179 296.0691 -9319.8020 -7567.4971 301.6662 258.3280 255.8679 30445.8701 216.5965 274.9447
ENERGY: 1500000 3.5788 11.1922 7.1001 0.0000 -10962.9319 1496.2090 0.0000 0.0000 1764.5903 -7680.2615 296.3893 -9444.8519 -7572.4630 301.5384 244.9404 255.4175 30615.1769 189.1263 242.1713
TCL: Running FEP window  18: Lambda1 0.8500000000000002 Lambda2 0.9000000000000002 [dLambda 0.050000000000000044]
TCL: Setting parameter firsttimestep to 0
TCL: Setting parameter alchLambda to 0.8500000000000002
Info: NONBONDED TABLE R-SQUARED SPACING: 0.0625
Info: NONBONDED TABLE SIZE: 705 POINTS
TCL: Setting parameter alchLambda2 to 0.9000000000000002
Info: NONBONDED TABLE R-SQUARED SPACING: 0.0625
Info: NONBONDED TABLE SIZE: 705 POINTS
TCL: Running for 1500000 steps
ETITLE: TS BOND ANGLE DIHED IMPRP ELECT VDW BOUNDARY MISC KINETIC TOTAL TEMP POTENTIAL TOTALAVG TEMPAVG PRESSURE GPRESSURE VOLUME PRESSAVG GPRESSAVG
ENERGY: 0 3.5788 11.1922 7.1001 0.0000 -10963.8981 1496.6938 0.0000 0.0000 1763.6842 -7681.6491 296.2371 -9445.3333 -7681.6491 296.2371 196.2607 273.8441 30615.1769 196.2607 273.8441
ENERGY: 300000 3.6890 6.5484 5.1990 0.0000 -10909.4198 1502.6151 0.0000 0.0000 1770.2212 -7621.1469 297.3351 -9391.3681 -7632.2417 299.1321 521.5473 593.1341 30266.6879 156.4958 238.8929
ENERGY: 600000 3.1748 7.1866 5.7563 0.0000 -10817.6249 1436.7687 0.0000 0.0000 1765.3612 -7599.3773 296.5187 -9364.7385 -7624.5713 298.9166 -164.8529 -20.7074 30950.9435 242.5264 325.9775
ENERGY: 900000 6.8449 8.7783 4.0982 0.0000 -10749.1628 1433.1207 0.0000 0.0000 1752.6534 -7543.6674 294.3843 -9296.3208 -7610.1075 298.6597 -8.0433 60.7103 30849.2981 201.9187 284.4799
ENERGY: 1200000 3.5495 10.2883 4.4766 0.0000 -10699.9088 1359.2295 0.0000 0.0000 1826.5940 -7495.7709 306.8037 -9322.3649 -7596.4195 300.1128 -602.5892 -508.6095 30685.2028 126.3077 203.5290
ENERGY: 1500000 3.2090 9.4393 7.4989 0.0000 -10627.8619 1310.1980 0.0000 0.0000 1780.2944 -7517.2223 299.0270 -9297.5167 -7583.9976 300.4503 -814.0155 -708.0509 30488.4972 86.9933 167.2495
TCL: Running FEP window  19: Lambda1 0.9000000000000002 Lambda2 0.9500000000000003 [dLambda 0.050000000000000044]
TCL: Setting parameter firsttimestep to 0
TCL: Setting parameter alchLambda to 0.9000000000000002
Info: NONBONDED TABLE R-SQUARED SPACING: 0.0625
Info: NONBONDED TABLE SIZE: 705 POINTS
TCL: Setting parameter alchLambda2 to 0.9500000000000003
Info: NONBONDED TABLE R-SQUARED SPACING: 0.0625
Info: NONBONDED TABLE SIZE: 705 POINTS
TCL: Running for 1500000 steps
ETITLE: TS BOND ANGLE DIHED IMPRP ELECT VDW BOUNDARY MISC KINETIC TOTAL TEMP POTENTIAL TOTALAVG TEMPAVG PRESSURE GPRESSURE VOLUME PRESSAVG GPRESSAVG
ENERGY: 0 3.2090 9.4393 7.4989 0.0000 -10628.4168 1310.8425 0.0000 0.0000 1779.4097 -7518.0174 298.8784 -9297.4271 -7518.0174 298.8784 -780.2362 -682.6136 30488.4972 -780.2362 -682.6136
ENERGY: 300000 4.1388 8.9665 4.2791 0.0000 -10803.2484 1443.9327 0.0000 0.0000 1827.8629 -7514.0684 307.0168 -9341.9314 -7516.0254 302.8256 -9.1189 56.0609 31050.9689 -270.2043 -211.3129
ENERGY: 600000 2.5094 5.7516 4.3745 0.0000 -10831.4000 1520.9676 0.0000 0.0000 1803.8382 -7493.9586 302.9815 -9297.7969 -7528.5617 301.7055 542.2038 679.1818 31117.1195 12.8700 78.8559
ENERGY: 900000 2.8685 10.0024 3.4022 0.0000 -10700.8918 1340.8869 0.0000 0.0000 1810.2467 -7533.4850 304.0579 -9343.7318 -7525.4301 302.4296 -826.0492 -837.9616 31095.1999 -183.0621 -133.3660
ENERGY: 1200000 4.5447 7.9563 4.7500 0.0000 -10866.0900 1429.7615 0.0000 0.0000 1829.4569 -7589.6208 307.2846 -9419.0776 -7540.8257 302.0022 -299.9904 -318.8994 31002.7359 -197.3896 -147.5482
ENERGY: 1500000 3.5958 10.3015 4.8391 0.0000 -10697.9030 1358.0440 0.0000 0.0000 1784.1183 -7537.0043 299.6693 -9321.1226 -7552.8350 300.1105 -1004.8191 -976.7544 31543.6001 -229.6840 -181.0833
TCL: Running FEP window  20: Lambda1 0.9500000000000003 Lambda2 1.0    [dLambda 0.04999999999999971]
TCL: Setting parameter firsttimestep to 0
TCL: Setting parameter alchLambda to 0.9500000000000003
Info: NONBONDED TABLE R-SQUARED SPACING: 0.0625
Info: NONBONDED TABLE SIZE: 705 POINTS
TCL: Setting parameter alchLambda2 to 1.0
Info: NONBONDED TABLE R-SQUARED SPACING: 0.0625
Info: NONBONDED TABLE SIZE: 705 POINTS
TCL: Running for 1500000 steps
ETITLE: TS BOND ANGLE DIHED IMPRP ELECT VDW BOUNDARY MISC KINETIC TOTAL TEMP POTENTIAL TOTALAVG TEMPAVG PRESSURE GPRESSURE VOLUME PRESSAVG GPRESSAVG
ENERGY: 0 3.5958 10.3015 4.8391 0.0000 -10698.8646 1357.6682 0.0000 0.0000 1783.2300 -7539.2301 299.5201 -9322.4601 -7539.2301 299.5201 -1048.0972 -964.9343 31543.6001 -1048.0972 -964.9343
ENERGY: 300000 3.6660 11.4953 5.5434 0.0000 -10795.3593 1382.8792 0.0000 0.0000 1789.2088 -7602.5666 300.5243 -9391.7754 -7543.8548 299.9839 -451.9648 -388.8422 30664.0979 -624.0357 -560.1517
ENERGY: 600000 4.2729 10.1231 3.9763 0.0000 -10715.6433 1410.0406 0.0000 0.0000 1792.7636 -7494.4669 301.1214 -9287.2304 -7549.8061 300.3997 -89.0351 -9.0497 30829.3264 -447.1271 -374.5693
ENERGY: 900000 4.8927 11.1911 9.3530 0.0000 -10964.3848 1570.5017 0.0000 0.0000 1763.1431 -7605.3033 296.1462 -9368.4463 -7568.6976 300.3239 1109.3296 1119.7246 30671.1969 -223.9183 -162.1659
ENERGY: 1200000 3.5247 12.3077 5.1345 0.0000 -10829.7939 1455.5721 0.0000 0.0000 1817.3203 -7535.9345 305.2461 -9353.2548 -7578.3520 300.5308 266.0485 280.6079 30761.1831 -137.4869 -70.4517
ENERGY: 1500000 1.7658 12.8530 5.7703 0.0000 -10841.7712 1466.7173 0.0000 0.0000 1753.1087 -7601.5560 294.4608 -9354.6647 -7587.4976 299.0720 78.2236 112.0862 30892.9906 -134.9929 -71.5204
TCL: Exiting due to exit command.
