Info: SIMULATION PARAMETERS:
Info: TIMESTEP               2
Info: NUMBER OF STEPS        0
Info: STEPS PER CYCLE        10
Info: PERIODIC CELL BASIS 1  28.9616 0 0
Info: PERIODIC CELL BASIS 2  0 34.6476 0
Info: PERIODIC CELL BASIS 3  0 0 30.3879
Info: PERIODIC CELL CENTER   0 0 0
Info: WRAPPING WATERS AROUND PERIODIC BOUNDARIES ON OUTPUT.
Info: WRAPPING ALL CLUSTERS AROUND PERIODIC BOUNDARIES ON OUTPUT.
Info: FIRST LDB TIMESTEP     50
Info: LAST LDB TIMESTEP     -1
Info: HOM BACKGROUND SCALING 1
Info: PME BACKGROUND SCALING 1
Info: MIN ATOMS PER PATCH    40
Info: EMPTY PATCH LOAD       40 ATOMS
Info: VELOCITY FILE          mobley_2636578_equil.vel
Info: CENTER OF MASS MOVING INITIALLY? NO
Info: DIELECTRIC             1
Info: EXCLUDE                SCALED ONE-FOUR
Info: 1-4 ELECTROSTATICS SCALED BY 0.833333
Info: MODIFIED 1-4 VDW PARAMETERS WILL BE USED
Info: DCD FILENAME           mobley_2636578_prod.dcd
Info: DCD FREQUENCY          100000
Info: DCD FIRST STEP         100000
Info: DCD FILE WILL CONTAIN UNIT CELL DATA
Info: XST FILENAME           mobley_2636578_prod.xst
Info: XST FREQUENCY          100000
Info: NO VELOCITY DCD OUTPUT
Info: NO FORCE DCD OUTPUT
Info: OUTPUT FILENAME        mobley_2636578_prod
Info: BINARY OUTPUT FILES WILL BE USED
Info: RESTART FILENAME       mobley_2636578_prod.restart
Info: RESTART FREQUENCY      100000
Info: BINARY RESTART FILES WILL BE USED
Info: CUTOFF                 9
Info: PAIRLIST DISTANCE      11
Info: PAIRLIST SHRINK RATE   0.01
Info: PAIRLIST GROW RATE     0.01
Info: PAIRLIST TRIGGER       0.3
Info: PAIRLISTS PER CYCLE    2
Info: PAIRLISTS ENABLED
Info: MARGIN                 2
Info: HYDROGEN GROUP CUTOFF  2.5
Info: PATCH DIMENSION        15.5
Info: ENERGY OUTPUT STEPS    100000
Info: ENERGY EVALUATION STEPS    100000
Info: OUTPUT ENERGY PRECISION 4
Info: CROSSTERM ENERGY INCLUDED IN DIHEDRAL
Info: TIMING OUTPUT STEPS    1000000
Info: PRESSURE OUTPUT STEPS  100000
Info: ALCHEMICAL FEP ON
Info: FEP CURRENT LAMBDA VALUE     1
Info: FEP COMPARISON LAMBDA VALUE  0.95
Info: FEP INTRA-ALCHEMICAL NON-BONDED INTERACTIONS WILL BE RETAINED
Info: FEP INTRA-ALCHEMICAL BONDED INTERACTIONS WILL BE RETAINED
Info: FEP VDW SHIFTING COEFFICIENT 5
Info: FEP ELEC. ACTIVE FOR ANNIHILATED PARTICLES BETWEEN LAMBDA = 0 AND LAMBDA = 0.5
Info: FEP ELEC. ACTIVE FOR EXNIHILATED PARTICLES BETWEEN LAMBDA = 0.5 AND LAMBDA = 1
Info: FEP VDW ACTIVE FOR ANNIHILATED PARTICLES BETWEEN LAMBDA = 0 AND LAMBDA = 1
Info: FEP VDW ACTIVE FOR EXNIHILATED PARTICLES BETWEEN LAMBDA = 0 AND LAMBDA = 1
Info: FEP BOND ACTIVE FOR ANNIHILATED PARTICLES BETWEEN LAMBDA = 1 AND LAMBDA = 1
Info: FEP BOND ACTIVE FOR EXNIHILATED PARTICLES BETWEEN LAMBDA = 0 AND LAMBDA = 0
Info: LANGEVIN DYNAMICS ACTIVE
Info: LANGEVIN TEMPERATURE   300
Info: LANGEVIN USING BBK INTEGRATOR
Info: LANGEVIN DAMPING COEFFICIENT IS 1 INVERSE PS
Info: LANGEVIN DYNAMICS APPLIED TO HYDROGENS
Info: LANGEVIN PISTON PRESSURE CONTROL ACTIVE
Info:        TARGET PRESSURE IS 1.01325 BAR
Info:     OSCILLATION PERIOD IS 50 FS
Info:             DECAY TIME IS 25 FS
Info:     PISTON TEMPERATURE IS 300 K
Info:       PRESSURE CONTROL IS GROUP-BASED
Info:    INITIAL STRAIN RATE IS -0.000344021 -0.000344021 -0.000344021
Info:       CELL FLUCTUATION IS ISOTROPIC
Info: PARTICLE MESH EWALD (PME) ACTIVE
Info: PME TOLERANCE               1e-06
Info: PME EWALD COEFFICIENT       0.348832
Info: PME INTERPOLATION ORDER     4
Info: PME GRID DIMENSIONS         32 36 32
Info: PME MAXIMUM GRID SPACING    1
Info: PME CALCULATION WILL BE PERFORMED ON GPU
Info: FULL ELECTROSTATIC EVALUATION FREQUENCY      2
Info: USING VERLET I (r-RESPA) MTS SCHEME.
Info: C1 SPLITTING OF LONG RANGE ELECTROSTATICS
Info: PLACING ATOMS IN PATCHES BY HYDROGEN GROUPS
Info: RIGID BONDS TO HYDROGEN : ALL
Info:         ERROR TOLERANCE : 1e-08
Info:          MAX ITERATIONS : 100
Info: RIGID WATER USING SETTLE ALGORITHM
Info: RANDOM NUMBER SEED     1744048823
Info: USE HYDROGEN BONDS?    NO
Info: Using AMBER format force field!
Info: AMBER PARM FILE        mobley_2636578.prmtop
Info: COORDINATE PDB         mobley_2636578.pdb
Info: Exclusions will be read from PARM file!
Info: SCNB (VDW SCALING)     2
Info: USING ARITHMETIC MEAN TO COMBINE L-J SIGMA PARAMETERS
Info: BINARY COORDINATES     mobley_2636578_equil.coor
Info: SUMMARY OF PARAMETERS:
Info: 8 BONDS
Info: 10 ANGLES
Info:   10 HARMONIC
Info:   0 COSINE-BASED
Info: 5 DIHEDRAL
Info: 0 IMPROPER
Info: 0 CROSSTERM
Info: 0 VDW
Info: 36 VDW_PAIRS
Info: 0 NBTHOLE_PAIRS
Info: To read alchdata from file: mobley_2636578.pdb
Info: To read alchflag data from column: 5
Info: STRUCTURE SUMMARY:
Info: 2927 ATOMS
Info: 2926 BONDS
Info: 26 ANGLES
Info: 32 DIHEDRALS
Info: 0 IMPROPERS
Info: 0 CROSSTERMS
Info: 2980 EXCLUSIONS
Info: 2916 RIGID BONDS
Info: ALCH: 0 ATOMS TO DISAPPEAR IN FINAL STATE
Info: ALCH: 17 ATOMS TO APPEAR IN FINAL STATE
Info: 5865 DEGREES OF FREEDOM
Info: 981 HYDROGEN GROUPS
Info: 3 ATOMS IN LARGEST HYDROGEN GROUP
Info: 981 MIGRATION GROUPS
Info: 3 ATOMS IN LARGEST MIGRATION GROUP
Info: TOTAL MASS = 17641.6 amu
Info: TOTAL CHARGE = -3.72529e-08 e
Info: MASS DENSITY = 0.96073 g/cm^3
Info: ATOM DENSITY = 0.0959901 atoms/A^3
Info: ADDED 0 IMPLICIT EXCLUSIONS
Info: NONBONDED TABLE R-SQUARED SPACING: 0.0625
Info: NONBONDED TABLE SIZE: 705 POINTS
Info: REMOVING COM VELOCITY 0.0512712 -0.0686949 0.346106
Info: Use 3D box decompostion in PME FFT.
Info: Updated CUDA force table with 4096 elements.
Info: Updated CUDA LJ table with 8 x 8 elements.
Info: Found 17 unique exclusion lists needing 44 bytes
TCL: Running for 1500000 steps
ETITLE: TS BOND ANGLE DIHED IMPRP ELECT VDW BOUNDARY MISC KINETIC TOTAL TEMP POTENTIAL TOTALAVG TEMPAVG PRESSURE GPRESSURE VOLUME PRESSAVG GPRESSAVG
ENERGY: 0 5.0188 7.2127 2.3338 0.0000 -10752.9136 1496.1832 0.0000 0.0000 1764.2091 -7477.9560 302.7418 -9242.1650 -7477.9560 302.7418 254.1602 342.3484 30492.7169 254.1602 342.3484
ENERGY: 300000 3.1104 9.4669 4.1038 0.0000 -10497.1726 1340.6197 0.0000 0.0000 1694.0165 -7445.8552 290.6966 -9139.8717 -7425.6474 301.9076 -424.4990 -363.9394 30033.9548 -31.9734 38.6727
ENERGY: 600000 3.8247 9.7425 4.3812 0.0000 -10565.3889 1386.8609 0.0000 0.0000 1745.9344 -7414.6452 299.6059 -9160.5796 -7417.1510 302.3178 -36.7815 12.6400 29692.9673 -44.9196 22.6633
ENERGY: 900000 2.7863 5.4999 2.2029 0.0000 -10607.8857 1414.6105 0.0000 0.0000 1693.9306 -7488.8554 290.6819 -9182.7860 -7424.7057 300.0316 116.7360 183.6904 29953.1699 -52.7534 17.4180
ENERGY: 1200000 1.7936 8.7621 3.3818 0.0000 -10739.4715 1502.2100 0.0000 0.0000 1756.2127 -7467.1112 301.3696 -9223.3239 -7428.1585 299.9350 826.4813 900.3988 29616.1089 12.9001 79.6801
ENERGY: 1500000 2.4262 9.3215 3.3401 0.0000 -10699.0874 1539.0756 0.0000 0.0000 1769.7268 -7375.1973 303.6887 -9144.9241 -7431.4571 299.4195 1182.1967 1233.4211 29850.8175 92.0059 158.8491
TCL: Running FEP window   2: Lambda1 0.95   Lambda2 0.8999999999999999 [dLambda -0.050000000000000044]
TCL: Setting parameter firsttimestep to 0
TCL: Setting parameter alchLambda to 0.95
Info: NONBONDED TABLE R-SQUARED SPACING: 0.0625
Info: NONBONDED TABLE SIZE: 705 POINTS
TCL: Setting parameter alchLambda2 to 0.8999999999999999
Info: NONBONDED TABLE R-SQUARED SPACING: 0.0625
Info: NONBONDED TABLE SIZE: 705 POINTS
TCL: Running for 1500000 steps
ETITLE: TS BOND ANGLE DIHED IMPRP ELECT VDW BOUNDARY MISC KINETIC TOTAL TEMP POTENTIAL TOTALAVG TEMPAVG PRESSURE GPRESSURE VOLUME PRESSAVG GPRESSAVG
ENERGY: 0 2.4262 9.3214 3.3401 0.0000 -10697.9554 1539.4289 0.0000 0.0000 1768.8599 -7374.5789 303.5399 -9143.4388 -7374.5789 303.5399 1134.1957 1225.2298 29850.8175 1134.1957 1225.2298
ENERGY: 300000 4.3086 8.8157 3.0274 0.0000 -10677.1901 1482.7026 0.0000 0.0000 1757.9192 -7420.4166 301.6625 -9178.3358 -7434.3463 297.7780 493.4198 583.2619 29861.2097 204.4093 295.6215
ENERGY: 600000 2.2940 4.8868 2.5944 0.0000 -10679.9378 1503.9132 0.0000 0.0000 1738.8233 -7427.4262 298.3856 -9166.2495 -7431.4199 298.4305 708.3105 783.8382 30389.4119 215.5587 288.6906
ENERGY: 900000 6.9970 5.4777 3.2890 0.0000 -10469.7787 1319.1885 0.0000 0.0000 1770.0742 -7364.7522 303.7483 -9134.8264 -7435.1700 299.5519 -597.5694 -650.3657 30237.9997 29.7649 91.9720
ENERGY: 1200000 2.8754 10.7957 3.7463 0.0000 -10584.6119 1421.6791 0.0000 0.0000 1757.3316 -7388.1838 301.5616 -9145.5154 -7440.2777 300.5080 61.1511 107.9200 30181.7675 136.3170 198.3728
ENERGY: 1500000 0.8786 7.2584 3.9794 0.0000 -10577.6395 1380.6939 0.0000 0.0000 1723.2331 -7461.5960 295.7103 -9184.8292 -7443.6092 299.7994 -297.7761 -228.5873 30152.3111 44.0782 106.2550
TCL: Running FEP window   3: Lambda1 0.8999999999999999 Lambda2 0.8499999999999999 [dLambda -0.050000000000000044]
TCL: Setting parameter firsttimestep to 0
TCL: Setting parameter alchLambda to 0.8999999999999999
Info: NONBONDED TABLE R-SQUARED SPACING: 0.0625
Info: NONBONDED TABLE SIZE: 705 POINTS
TCL: Setting parameter alchLambda2 to 0.8499999999999999
Info: NONBONDED TABLE R-SQUARED SPACING: 0.0625
Info: NONBONDED TABLE SIZE: 705 POINTS
TCL: Running for 1500000 steps
ETITLE: TS BOND ANGLE DIHED IMPRP ELECT VDW BOUNDARY MISC KINETIC TOTAL TEMP POTENTIAL TOTALAVG TEMPAVG PRESSURE GPRESSURE VOLUME PRESSAVG GPRESSAVG
ENERGY: 0 0.8786 7.2584 3.9794 0.0000 -10576.5744 1380.9601 0.0000 0.0000 1722.3743 -7461.1236 295.5629 -9183.4979 -7461.1236 295.5629 -338.8793 -242.7108 30152.3111 -338.8793 -242.7108
ENERGY: 300000 9.9136 5.3122 3.0151 0.0000 -10702.8573 1448.8650 0.0000 0.0000 1768.8403 -7466.9110 303.5366 -9235.7513 -7463.4653 300.0534 -65.3315 17.4020 29957.1707 -182.4490 -119.4816
ENERGY: 600000 3.4158 11.5383 3.6221 0.0000 -10539.8377 1343.9007 0.0000 0.0000 1720.4089 -7456.9518 295.2256 -9177.3607 -7432.4339 298.3409 -861.0214 -775.2230 30510.5529 -113.6995 -43.1996
ENERGY: 900000 2.5326 7.7968 1.8958 0.0000 -10621.7392 1390.5693 0.0000 0.0000 1731.4376 -7487.5071 297.1182 -9218.9447 -7432.9588 300.0062 -97.4372 -11.5300 29578.0350 -87.5310 -28.9087
ENERGY: 1200000 3.3511 8.6776 2.6652 0.0000 -10645.5189 1452.9070 0.0000 0.0000 1772.0331 -7405.8849 304.0844 -9177.9180 -7431.2291 300.8957 301.2463 344.0287 29986.3145 -7.4408 51.6772
ENERGY: 1500000 1.6563 4.9811 2.7216 0.0000 -10632.9501 1386.9452 0.0000 0.0000 1740.9661 -7495.6798 298.7533 -9236.6459 -7425.5982 301.2286 -494.7470 -410.4721 30207.2770 -37.7766 23.6122
TCL: Running FEP window   4: Lambda1 0.8499999999999999 Lambda2 0.7999999999999998 [dLambda -0.050000000000000044]
TCL: Setting parameter firsttimestep to 0
TCL: Setting parameter alchLambda to 0.8499999999999999
Info: NONBONDED TABLE R-SQUARED SPACING: 0.0625
Info: NONBONDED TABLE SIZE: 705 POINTS
TCL: Setting parameter alchLambda2 to 0.7999999999999998
Info: NONBONDED TABLE R-SQUARED SPACING: 0.0625
Info: NONBONDED TABLE SIZE: 705 POINTS
TCL: Running for 1500000 steps
ETITLE: TS BOND ANGLE DIHED IMPRP ELECT VDW BOUNDARY MISC KINETIC TOTAL TEMP POTENTIAL TOTALAVG TEMPAVG PRESSURE GPRESSURE VOLUME PRESSAVG GPRESSAVG
ENERGY: 0 1.6563 4.9811 2.7216 0.0000 -10632.4627 1387.4094 0.0000 0.0000 1740.0871 -7495.6073 298.6024 -9235.6944 -7495.6073 298.6024 -513.7961 -421.0671 30207.2770 -513.7961 -421.0671
ENERGY: 300000 3.1772 4.5721 4.0979 0.0000 -10572.6134 1369.1444 0.0000 0.0000 1771.8531 -7419.7687 304.0536 -9191.6218 -7441.8542 302.0591 -411.8169 -331.1717 30357.6408 -253.9892 -172.6149
ENERGY: 600000 2.3146 6.5846 3.7454 0.0000 -10660.5440 1421.1463 0.0000 0.0000 1762.6463 -7464.1069 302.4736 -9226.7532 -7434.8402 302.6921 -454.4840 -373.0214 30599.1665 -13.9621 64.4057
ENERGY: 900000 4.9986 7.6771 1.6256 0.0000 -10475.4973 1342.2471 0.0000 0.0000 1749.0203 -7369.9285 300.1354 -9118.9488 -7416.8922 302.4990 -520.3477 -552.7578 30262.7090 12.0716 68.7989
ENERGY: 1200000 1.6686 6.4170 2.0157 0.0000 -10572.9490 1352.4591 0.0000 0.0000 1729.4952 -7480.8935 296.7848 -9210.3887 -7429.1978 301.5378 -706.2440 -654.7449 30447.0518 -56.2083 -2.2509
ENERGY: 1500000 3.9319 9.0987 5.4084 0.0000 -10683.5461 1423.7785 0.0000 0.0000 1760.9517 -7480.3768 302.1829 -9241.3286 -7427.5267 302.2323 26.2941 -28.4258 29979.9425 -32.0048 15.3455
TCL: Running FEP window   5: Lambda1 0.7999999999999998 Lambda2 0.7499999999999998 [dLambda -0.050000000000000044]
TCL: Setting parameter firsttimestep to 0
TCL: Setting parameter alchLambda to 0.7999999999999998
Info: NONBONDED TABLE R-SQUARED SPACING: 0.0625
Info: NONBONDED TABLE SIZE: 705 POINTS
TCL: Setting parameter alchLambda2 to 0.7499999999999998
Info: NONBONDED TABLE R-SQUARED SPACING: 0.0625
Info: NONBONDED TABLE SIZE: 705 POINTS
TCL: Running for 1500000 steps
ETITLE: TS BOND ANGLE DIHED IMPRP ELECT VDW BOUNDARY MISC KINETIC TOTAL TEMP POTENTIAL TOTALAVG TEMPAVG PRESSURE GPRESSURE VOLUME PRESSAVG GPRESSAVG
ENERGY: 0 3.9319 9.0987 5.4084 0.0000 -10682.1968 1424.1615 0.0000 0.0000 1760.0941 -7479.5021 302.0357 -9239.5963 -7479.5021 302.0357 -111.1240 -34.9884 29979.9425 -111.1240 -34.9884
ENERGY: 300000 3.7605 12.4624 2.1443 0.0000 -10588.5119 1405.4248 0.0000 0.0000 1674.8565 -7489.8634 287.4087 -9164.7199 -7430.7767 296.3191 -39.0448 65.4078 29859.5035 -70.9977 1.6316
ENERGY: 600000 4.1061 7.5440 3.7652 0.0000 -10509.5684 1360.7856 0.0000 0.0000 1715.0646 -7418.3027 294.3085 -9133.3674 -7440.7820 297.7876 -543.0299 -476.0961 30456.1491 -64.3746 -3.8523
ENERGY: 900000 4.9295 6.2058 4.1124 0.0000 -10512.2863 1334.4816 0.0000 0.0000 1700.7881 -7461.7688 291.8587 -9162.5569 -7436.1982 296.6571 -835.2528 -803.7144 30247.8526 -188.6315 -133.1287
ENERGY: 1200000 3.2593 5.7237 5.7825 0.0000 -10389.0569 1301.8642 0.0000 0.0000 1776.5131 -7295.9141 304.8532 -9072.4272 -7420.0631 297.3753 -884.8764 -766.3871 30490.9934 -248.7786 -187.0539
ENERGY: 1500000 3.7842 10.6298 6.0181 0.0000 -10685.4483 1441.8431 0.0000 0.0000 1709.1256 -7514.0474 293.2894 -9223.1730 -7423.7066 297.2573 300.9343 320.9606 29857.9366 -156.3390 -97.6686
TCL: Running FEP window   6: Lambda1 0.7499999999999998 Lambda2 0.6999999999999997 [dLambda -0.050000000000000044]
TCL: Setting parameter firsttimestep to 0
TCL: Setting parameter alchLambda to 0.7499999999999998
Info: NONBONDED TABLE R-SQUARED SPACING: 0.0625
Info: NONBONDED TABLE SIZE: 705 POINTS
TCL: Setting parameter alchLambda2 to 0.6999999999999997
Info: NONBONDED TABLE R-SQUARED SPACING: 0.0625
Info: NONBONDED TABLE SIZE: 705 POINTS
TCL: Running for 1500000 steps
ETITLE: TS BOND ANGLE DIHED IMPRP ELECT VDW BOUNDARY MISC KINETIC TOTAL TEMP POTENTIAL TOTALAVG TEMPAVG PRESSURE GPRESSURE VOLUME PRESSAVG GPRESSAVG
ENERGY: 0 3.7842 10.6298 6.0181 0.0000 -10684.7786 1442.2850 0.0000 0.0000 1708.2285 -7513.8329 293.1354 -9222.0615 -7513.8329 293.1354 235.3810 309.8832 29857.9366 235.3810 309.8832
ENERGY: 300000 1.9993 4.5617 4.2231 0.0000 -10564.2686 1358.9448 0.0000 0.0000 1783.6349 -7410.9048 306.0753 -9194.5397 -7431.0438 303.9094 -647.9325 -542.5853 30086.3906 -160.3916 -75.9546
ENERGY: 600000 1.9748 10.0389 1.9682 0.0000 -10619.3990 1467.9888 0.0000 0.0000 1765.4708 -7371.9574 302.9583 -9137.4283 -7411.5657 302.3597 539.4851 651.0298 30064.1027 -188.4879 -108.7193
ENERGY: 900000 5.8741 9.2538 2.2988 0.0000 -10496.6861 1368.1811 0.0000 0.0000 1682.4281 -7428.6502 288.7080 -9111.0783 -7420.4621 299.4813 -832.3568 -738.9036 31039.0903 -130.1345 -58.3008
ENERGY: 1200000 0.9265 7.7310 2.9690 0.0000 -10523.2128 1327.3377 0.0000 0.0000 1780.4548 -7403.7938 305.5296 -9184.2486 -7419.1281 300.2010 -933.8601 -869.2447 30633.6409 -144.9353 -79.8531
ENERGY: 1500000 2.4072 5.9885 4.9020 0.0000 -10730.3790 1548.6484 0.0000 0.0000 1727.2723 -7441.1607 296.4034 -9168.4329 -7415.5574 300.4097 1032.3594 1055.9973 30043.8618 8.7194 62.3670
TCL: Running FEP window   7: Lambda1 0.6999999999999997 Lambda2 0.6499999999999997 [dLambda -0.050000000000000044]
TCL: Setting parameter firsttimestep to 0
TCL: Setting parameter alchLambda to 0.6999999999999997
Info: NONBONDED TABLE R-SQUARED SPACING: 0.0625
Info: NONBONDED TABLE SIZE: 705 POINTS
TCL: Setting parameter alchLambda2 to 0.6499999999999997
Info: NONBONDED TABLE R-SQUARED SPACING: 0.0625
Info: NONBONDED TABLE SIZE: 705 POINTS
TCL: Running for 1500000 steps
ETITLE: TS BOND ANGLE DIHED IMPRP ELECT VDW BOUNDARY MISC KINETIC TOTAL TEMP POTENTIAL TOTALAVG TEMPAVG PRESSURE GPRESSURE VOLUME PRESSAVG GPRESSAVG
ENERGY: 0 2.4072 5.9885 4.9020 0.0000 -10729.9502 1548.8341 0.0000 0.0000 1726.4174 -7441.4010 296.2567 -9167.8184 -7441.4010 296.2567 979.0618 1047.9933 30043.8618 979.0618 1047.9933
ENERGY: 300000 3.9875 5.6318 2.4898 0.0000 -10496.0602 1294.1649 0.0000 0.0000 1754.2949 -7435.4913 301.0405 -9189.7862 -7439.9124 298.1572 -1179.3223 -1124.6660 30366.2745 -17.1512 31.9750
ENERGY: 600000 2.1575 9.1306 1.8453 0.0000 -10653.1496 1484.0786 0.0000 0.0000 1672.2664 -7483.6711 286.9643 -9155.9376 -7436.8264 298.6307 526.1969 506.2887 29822.0769 132.2862 175.7282
ENERGY: 900000 2.1324 7.0527 2.6688 0.0000 -10684.0071 1504.0972 0.0000 0.0000 1764.5617 -7403.4944 302.8023 -9168.0560 -7427.2596 298.9143 928.0065 975.4195 29604.4002 74.1388 109.6748
ENERGY: 1200000 1.1048 8.4773 2.3119 0.0000 -10666.5496 1451.2298 0.0000 0.0000 1748.1733 -7455.2525 299.9900 -9203.4257 -7432.7777 299.1324 592.2274 626.2836 29494.1397 114.0834 150.8314
ENERGY: 1500000 3.2069 6.7059 4.9970 0.0000 -10743.9752 1473.8284 0.0000 0.0000 1733.8609 -7521.3762 297.5340 -9255.2371 -7430.9594 299.7280 85.1616 139.6068 30137.3091 166.1219 211.2279
TCL: Running FEP window   8: Lambda1 0.6499999999999997 Lambda2 0.5999999999999996 [dLambda -0.050000000000000044]
TCL: Setting parameter firsttimestep to 0
TCL: Setting parameter alchLambda to 0.6499999999999997
Info: NONBONDED TABLE R-SQUARED SPACING: 0.0625
Info: NONBONDED TABLE SIZE: 705 POINTS
TCL: Setting parameter alchLambda2 to 0.5999999999999996
Info: NONBONDED TABLE R-SQUARED SPACING: 0.0625
Info: NONBONDED TABLE SIZE: 705 POINTS
TCL: Running for 1500000 steps
ETITLE: TS BOND ANGLE DIHED IMPRP ELECT VDW BOUNDARY MISC KINETIC TOTAL TEMP POTENTIAL TOTALAVG TEMPAVG PRESSURE GPRESSURE VOLUME PRESSAVG GPRESSAVG
ENERGY: 0 3.2069 6.7059 4.9970 0.0000 -10743.9171 1474.1797 0.0000 0.0000 1733.0212 -7521.8066 297.3899 -9254.8277 -7521.8066 297.3899 59.2897 132.0038 30137.3091 59.2897 132.0038
ENERGY: 300000 2.3262 7.5568 3.5648 0.0000 -10645.0185 1392.1848 0.0000 0.0000 1695.7685 -7543.6174 290.9973 -9239.3859 -7447.1544 300.3709 -509.1335 -437.7332 30218.8791 -97.0087 -17.1114
ENERGY: 600000 2.2008 8.7109 3.8310 0.0000 -10622.4163 1406.5206 0.0000 0.0000 1787.3846 -7413.7684 306.7188 -9201.1530 -7429.1103 301.2753 -558.3087 -560.5481 30705.6809 -253.5720 -182.6737
ENERGY: 900000 3.6331 10.6831 2.3570 0.0000 -10439.5631 1314.6394 0.0000 0.0000 1761.5511 -7346.6994 302.2857 -9108.2505 -7422.2528 300.6403 -633.4100 -602.4103 30052.6676 -300.5133 -229.3807
ENERGY: 1200000 4.3570 5.4252 2.0503 0.0000 -10544.3260 1384.4051 0.0000 0.0000 1741.6257 -7406.4627 298.8665 -9148.0885 -7422.2899 300.2965 -179.8374 -180.1624 29865.3180 -292.9474 -228.4400
ENERGY: 1500000 2.7391 5.8854 5.7518 0.0000 -10655.1474 1465.7083 0.0000 0.0000 1769.1050 -7405.9579 303.5820 -9175.0628 -7423.4950 299.8494 431.5076 443.1762 30165.8628 -259.9874 -204.0964
TCL: Running FEP window   9: Lambda1 0.5999999999999996 Lambda2 0.5499999999999996 [dLambda -0.050000000000000044]
TCL: Setting parameter firsttimestep to 0
TCL: Setting parameter alchLambda to 0.5999999999999996
Info: NONBONDED TABLE R-SQUARED SPACING: 0.0625
Info: NONBONDED TABLE SIZE: 705 POINTS
TCL: Setting parameter alchLambda2 to 0.5499999999999996
Info: NONBONDED TABLE R-SQUARED SPACING: 0.0625
Info: NONBONDED TABLE SIZE: 705 POINTS
TCL: Running for 1500000 steps
ETITLE: TS BOND ANGLE DIHED IMPRP ELECT VDW BOUNDARY MISC KINETIC TOTAL TEMP POTENTIAL TOTALAVG TEMPAVG PRESSURE GPRESSURE VOLUME PRESSAVG GPRESSAVG
ENERGY: 0 2.7391 5.8854 5.7518 0.0000 -10654.5320 1466.4050 0.0000 0.0000 1768.2525 -7405.4983 303.4357 -9173.7508 -7405.4983 303.4357 373.0899 439.3251 30165.8628 373.0899 439.3251
ENERGY: 300000 1.8170 7.3032 3.0830 0.0000 -10526.1093 1393.0974 0.0000 0.0000 1744.0341 -7376.7746 299.2798 -9120.8087 -7400.0826 300.9188 -334.6223 -232.3356 30483.9722 -98.2654 -18.1504
ENERGY: 600000 4.1787 7.2293 5.2896 0.0000 -10595.2131 1418.7891 0.0000 0.0000 1739.0201 -7420.7063 298.4193 -9159.7264 -7397.2563 301.1287 124.3134 154.8220 29834.2223 4.3460 72.8354
ENERGY: 900000 3.1105 8.4928 3.7181 0.0000 -10685.4612 1436.2136 0.0000 0.0000 1717.6897 -7516.2366 294.7590 -9233.9263 -7419.0578 300.2497 -244.7042 -214.8661 30279.6453 -5.2223 44.3063
ENERGY: 1200000 1.7171 11.7647 6.0552 0.0000 -10637.7510 1493.2879 0.0000 0.0000 1734.5376 -7390.3885 297.6501 -9124.9260 -7417.7529 300.6165 674.2103 698.7768 30123.5203 86.7582 140.0984
ENERGY: 1500000 3.4313 10.4833 4.1757 0.0000 -10591.2646 1431.0300 0.0000 0.0000 1698.5358 -7443.6084 291.4722 -9142.1442 -7415.1294 300.2069 -34.1879 47.2972 30320.4941 80.6187 137.0248
TCL: Running FEP window  10: Lambda1 0.5499999999999996 Lambda2 0.4999999999999996 [dLambda -0.04999999999999999]
TCL: Setting parameter firsttimestep to 0
TCL: Setting parameter alchLambda to 0.5499999999999996
Info: NONBONDED TABLE R-SQUARED SPACING: 0.0625
Info: NONBONDED TABLE SIZE: 705 POINTS
TCL: Setting parameter alchLambda2 to 0.4999999999999996
Info: NONBONDED TABLE R-SQUARED SPACING: 0.0625
Info: NONBONDED TABLE SIZE: 705 POINTS
TCL: Running for 1500000 steps
ETITLE: TS BOND ANGLE DIHED IMPRP ELECT VDW BOUNDARY MISC KINETIC TOTAL TEMP POTENTIAL TOTALAVG TEMPAVG PRESSURE GPRESSURE VOLUME PRESSAVG GPRESSAVG
ENERGY: 0 3.4313 10.4833 4.1757 0.0000 -10591.0815 1430.3464 0.0000 0.0000 1697.6776 -7444.9671 291.3249 -9142.6447 -7444.9671 291.3249 -46.4416 32.9358 30320.4941 -46.4416 32.9358
ENERGY: 300000 2.4851 7.0345 2.1023 0.0000 -10510.1359 1383.0477 0.0000 0.0000 1749.4989 -7365.9674 300.2175 -9115.4663 -7404.3564 298.1553 -470.5620 -290.8616 30453.0418 -416.0946 -299.6924
ENERGY: 600000 1.6992 7.6326 4.9146 0.0000 -10684.9918 1422.8879 0.0000 0.0000 1707.6789 -7540.1785 293.0411 -9247.8574 -7433.6333 299.5148 -78.2458 33.5685 29649.0927 -259.7960 -156.3355
ENERGY: 900000 3.0103 8.7220 4.3794 0.0000 -10623.5016 1432.6672 0.0000 0.0000 1777.6219 -7397.1008 305.0435 -9174.7227 -7431.6472 300.1891 -74.4020 -43.3124 30247.2196 -186.4136 -101.6383
ENERGY: 1200000 0.9321 5.0737 1.4352 0.0000 -10743.2246 1499.2427 0.0000 0.0000 1723.0007 -7513.5401 295.6704 -9236.5409 -7427.4613 299.8297 659.1563 671.4917 29933.8948 -181.2583 -101.4335
ENERGY: 1500000 3.0164 7.5475 3.5204 0.0000 -10554.8082 1418.4679 0.0000 0.0000 1789.4883 -7332.7678 307.0798 -9122.2561 -7422.7791 300.7636 42.3386 127.6995 30271.2891 -150.8630 -77.3896
TCL: Running FEP window  11: Lambda1 0.4999999999999996 Lambda2 0.4499999999999996 [dLambda -0.04999999999999999]
TCL: Setting parameter firsttimestep to 0
TCL: Setting parameter alchLambda to 0.4999999999999996
Info: NONBONDED TABLE R-SQUARED SPACING: 0.0625
Info: NONBONDED TABLE SIZE: 705 POINTS
TCL: Setting parameter alchLambda2 to 0.4499999999999996
Info: NONBONDED TABLE R-SQUARED SPACING: 0.0625
Info: NONBONDED TABLE SIZE: 705 POINTS
TCL: Running for 1500000 steps
ETITLE: TS BOND ANGLE DIHED IMPRP ELECT VDW BOUNDARY MISC KINETIC TOTAL TEMP POTENTIAL TOTALAVG TEMPAVG PRESSURE GPRESSURE VOLUME PRESSAVG GPRESSAVG
ENERGY: 0 3.0164 7.5475 3.5204 0.0000 -10554.1697 1418.2413 0.0000 0.0000 1788.5803 -7333.2639 306.9240 -9121.8442 -7333.2639 306.9240 42.3788 118.6693 30271.2891 42.3788 118.6693
ENERGY: 300000 3.5223 7.6740 4.6566 0.0000 -10588.9796 1453.9951 0.0000 0.0000 1688.9786 -7430.1531 289.8321 -9119.1317 -7344.5455 302.2409 309.8858 377.9705 29946.4370 4.9934 62.4452
ENERGY: 600000 2.9900 5.8858 3.2925 0.0000 -10654.7492 1455.1018 0.0000 0.0000 1732.9789 -7454.5001 297.3827 -9187.4790 -7351.6692 302.2475 314.4362 333.4749 29722.5045 -84.3998 -31.8137
ENERGY: 900000 4.4589 4.2425 1.9309 0.0000 -10657.3722 1462.0764 0.0000 0.0000 1778.7759 -7405.8876 305.2415 -9184.6634 -7375.2488 301.9124 259.3220 294.0468 30000.6464 -111.9694 -55.6362
ENERGY: 1200000 4.3052 7.8265 3.4716 0.0000 -10634.8604 1405.4215 0.0000 0.0000 1775.2267 -7438.6090 304.6325 -9213.8356 -7385.9460 301.8687 -320.2189 -307.7701 30278.0303 -44.3588 10.3088
ENERGY: 1500000 1.3197 10.0835 3.8374 0.0000 -10630.4195 1453.1733 0.0000 0.0000 1756.4041 -7405.6016 301.4025 -9162.0056 -7392.5701 301.1332 265.2706 243.6647 30136.1773 -79.7053 -30.9917
TCL: Running FEP window  12: Lambda1 0.4499999999999996 Lambda2 0.39999999999999963 [dLambda -0.04999999999999999]
TCL: Setting parameter firsttimestep to 0
TCL: Setting parameter alchLambda to 0.4499999999999996
Info: NONBONDED TABLE R-SQUARED SPACING: 0.0625
Info: NONBONDED TABLE SIZE: 705 POINTS
TCL: Setting parameter alchLambda2 to 0.39999999999999963
Info: NONBONDED TABLE R-SQUARED SPACING: 0.0625
Info: NONBONDED TABLE SIZE: 705 POINTS
TCL: Running for 1500000 steps
ETITLE: TS BOND ANGLE DIHED IMPRP ELECT VDW BOUNDARY MISC KINETIC TOTAL TEMP POTENTIAL TOTALAVG TEMPAVG PRESSURE GPRESSURE VOLUME PRESSAVG GPRESSAVG
ENERGY: 0 1.3197 10.0835 3.8374 0.0000 -10630.4199 1453.8794 0.0000 0.0000 1755.5500 -7405.7499 301.2559 -9161.2999 -7405.7499 301.2559 154.7526 242.6465 30136.1773 154.7526 242.6465
ENERGY: 300000 2.7410 6.1671 4.1090 0.0000 -10584.0733 1454.4402 0.0000 0.0000 1737.5794 -7379.0366 298.1721 -9116.6160 -7388.3292 300.7705 421.8825 494.2373 30010.4858 226.8043 297.8904
ENERGY: 600000 1.9837 11.7752 4.2291 0.0000 -10600.9498 1364.9121 0.0000 0.0000 1717.8730 -7500.1766 294.7905 -9218.0496 -7401.1770 300.3096 -784.1883 -767.3459 30443.1500 -0.3217 55.7100
ENERGY: 900000 1.7236 9.0057 2.8140 0.0000 -10600.7031 1466.1256 0.0000 0.0000 1772.1368 -7348.8974 304.1022 -9121.0342 -7403.6147 301.0342 349.0653 444.6678 30443.5976 64.4784 119.6416
ENERGY: 1200000 0.9445 5.0456 2.5024 0.0000 -10664.3406 1413.5967 0.0000 0.0000 1759.3840 -7482.8673 301.9138 -9242.2514 -7408.0781 301.3349 -232.8105 -203.6863 30116.5188 86.2920 132.8725
ENERGY: 1500000 2.7008 9.3544 3.9766 0.0000 -10651.9475 1434.5121 0.0000 0.0000 1793.2848 -7408.1188 307.7313 -9201.4036 -7416.4468 300.7986 -233.3985 -159.0793 30288.1488 -16.4291 41.3499
TCL: Running FEP window  13: Lambda1 0.39999999999999963 Lambda2 0.34999999999999964 [dLambda -0.04999999999999999]
TCL: Setting parameter firsttimestep to 0
TCL: Setting parameter alchLambda to 0.39999999999999963
Info: NONBONDED TABLE R-SQUARED SPACING: 0.0625
Info: NONBONDED TABLE SIZE: 705 POINTS
TCL: Setting parameter alchLambda2 to 0.34999999999999964
Info: NONBONDED TABLE R-SQUARED SPACING: 0.0625
Info: NONBONDED TABLE SIZE: 705 POINTS
TCL: Running for 1500000 steps
ETITLE: TS BOND ANGLE DIHED IMPRP ELECT VDW BOUNDARY MISC KINETIC TOTAL TEMP POTENTIAL TOTALAVG TEMPAVG PRESSURE GPRESSURE VOLUME PRESSAVG GPRESSAVG
ENERGY: 0 2.7008 9.3544 3.9766 0.0000 -10651.9481 1435.2536 0.0000 0.0000 1792.4726 -7408.1901 307.5919 -9200.6628 -7408.1901 307.5919 -246.1923 -161.6063 30288.1488 -246.1923 -161.6063
ENERGY: 300000 2.9101 4.7339 2.4931 0.0000 -10658.6764 1479.1250 0.0000 0.0000 1746.5149 -7422.8995 299.7055 -9169.4144 -7415.9645 303.1391 317.0659 390.9565 30362.3334 -275.8455 -192.7924
ENERGY: 600000 4.4633 8.5514 3.5269 0.0000 -10459.0248 1377.0839 0.0000 0.0000 1806.2480 -7259.1514 309.9558 -9065.3994 -7402.6440 304.7582 -456.2859 -432.5245 30440.6006 -58.6025 13.1195
ENERGY: 900000 2.0243 10.9317 2.1023 0.0000 -10655.6221 1429.0332 0.0000 0.0000 1750.3451 -7461.1855 300.3627 -9211.5305 -7419.4534 302.8711 307.0823 396.1817 29202.8084 -126.9992 -57.6159
ENERGY: 1200000 2.3498 4.8818 2.9480 0.0000 -10491.1417 1397.9168 0.0000 0.0000 1741.1809 -7341.8645 298.7901 -9083.0454 -7410.5857 302.2260 49.9439 227.5755 29828.3235 -53.9304 23.0136
ENERGY: 1500000 3.7373 11.5062 2.7119 0.0000 -10607.7411 1404.6692 0.0000 0.0000 1772.2285 -7412.8879 304.1180 -9185.1165 -7415.5048 301.5142 -108.4073 -26.0416 30116.3064 -71.9305 6.4504
TCL: Running FEP window  14: Lambda1 0.34999999999999964 Lambda2 0.29999999999999966 [dLambda -0.04999999999999999]
TCL: Setting parameter firsttimestep to 0
TCL: Setting parameter alchLambda to 0.34999999999999964
Info: NONBONDED TABLE R-SQUARED SPACING: 0.0625
Info: NONBONDED TABLE SIZE: 705 POINTS
TCL: Setting parameter alchLambda2 to 0.29999999999999966
Info: NONBONDED TABLE R-SQUARED SPACING: 0.0625
Info: NONBONDED TABLE SIZE: 705 POINTS
TCL: Running for 1500000 steps
ETITLE: TS BOND ANGLE DIHED IMPRP ELECT VDW BOUNDARY MISC KINETIC TOTAL TEMP POTENTIAL TOTALAVG TEMPAVG PRESSURE GPRESSURE VOLUME PRESSAVG GPRESSAVG
ENERGY: 0 3.7373 11.5063 2.7119 0.0000 -10607.7379 1405.2007 0.0000 0.0000 1771.4002 -7413.1816 303.9758 -9184.5818 -7413.1816 303.9758 -128.9938 -29.8029 30116.3064 -128.9938 -29.8029
ENERGY: 300000 4.6915 7.8170 3.3111 0.0000 -10680.1170 1479.5798 0.0000 0.0000 1735.2783 -7449.4394 297.7772 -9184.7177 -7414.6753 299.3867 569.2370 575.7275 30238.2312 -45.2898 -3.9324
ENERGY: 600000 2.7360 6.9231 4.0256 0.0000 -10601.6631 1386.3825 0.0000 0.0000 1732.8165 -7468.7794 297.3548 -9201.5959 -7424.2337 298.5441 -627.0237 -539.6387 30284.3677 -137.3239 -94.9142
ENERGY: 900000 1.4731 5.6102 5.1070 0.0000 -10624.8995 1439.6715 0.0000 0.0000 1766.1051 -7406.9327 303.0672 -9173.0378 -7431.1758 298.2396 33.7756 57.4737 30069.0072 -76.6487 -33.4457
ENERGY: 1200000 2.1608 8.6852 6.7414 0.0000 -10684.7950 1494.3536 0.0000 0.0000 1730.3743 -7442.4797 296.9357 -9172.8540 -7427.6361 298.4691 800.8731 861.0127 29757.6861 71.0726 126.4921
ENERGY: 1500000 3.7125 5.9512 5.8871 0.0000 -10584.8184 1434.5093 0.0000 0.0000 1755.1140 -7379.6443 301.1811 -9134.7583 -7430.0433 298.1630 83.9757 74.2718 30194.9422 66.8730 123.2566
TCL: Running FEP window  15: Lambda1 0.29999999999999966 Lambda2 0.24999999999999967 [dLambda -0.04999999999999999]
TCL: Setting parameter firsttimestep to 0
TCL: Setting parameter alchLambda to 0.29999999999999966
Info: NONBONDED TABLE R-SQUARED SPACING: 0.0625
Info: NONBONDED TABLE SIZE: 705 POINTS
TCL: Setting parameter alchLambda2 to 0.24999999999999967
Info: NONBONDED TABLE R-SQUARED SPACING: 0.0625
Info: NONBONDED TABLE SIZE: 705 POINTS
TCL: Running for 1500000 steps
ETITLE: TS BOND ANGLE DIHED IMPRP ELECT VDW BOUNDARY MISC KINETIC TOTAL TEMP POTENTIAL TOTALAVG TEMPAVG PRESSURE GPRESSURE VOLUME PRESSAVG GPRESSAVG
ENERGY: 0 3.7125 5.9512 5.8871 0.0000 -10584.8180 1435.0957 0.0000 0.0000 1754.2233 -7379.9483 301.0282 -9134.1716 -7379.9483 301.0282 -1.2856 73.9850 30194.9422 -1.2856 73.9850
ENERGY: 300000 2.0252 14.2437 3.4130 0.0000 -10612.7162 1390.9939 0.0000 0.0000 1740.8114 -7461.2290 298.7267 -9202.0404 -7393.7757 300.2478 -153.1032 -115.2910 29705.1276 -7.6498 64.3528
ENERGY: 600000 4.9766 10.3979 3.1802 0.0000 -10591.8524 1383.5783 0.0000 0.0000 1744.0007 -7445.7187 299.2740 -9189.7194 -7383.1867 301.9995 -438.7980 -432.4232 29659.9999 -224.3536 -158.1924
ENERGY: 900000 1.5654 6.7131 2.8074 0.0000 -10694.5515 1516.2971 0.0000 0.0000 1703.7032 -7463.4653 292.3589 -9167.1685 -7397.6390 300.5175 776.0262 902.7484 29761.5149 -129.0428 -53.4851
ENERGY: 1200000 3.2620 7.8548 3.9790 0.0000 -10697.5565 1481.4181 0.0000 0.0000 1777.8902 -7423.1524 305.0895 -9201.0426 -7395.2842 301.4104 467.3689 527.8949 29631.7338 -53.5487 18.5921
ENERGY: 1500000 3.5792 6.8475 4.0982 0.0000 -10687.5683 1493.3465 0.0000 0.0000 1766.3847 -7413.3122 303.1152 -9179.6969 -7406.8348 300.7272 937.5841 930.1309 29606.1253 56.3537 122.5014
TCL: Running FEP window  16: Lambda1 0.24999999999999967 Lambda2 0.19999999999999968 [dLambda -0.04999999999999999]
TCL: Setting parameter firsttimestep to 0
TCL: Setting parameter alchLambda to 0.24999999999999967
Info: NONBONDED TABLE R-SQUARED SPACING: 0.0625
Info: NONBONDED TABLE SIZE: 705 POINTS
TCL: Setting parameter alchLambda2 to 0.19999999999999968
Info: NONBONDED TABLE R-SQUARED SPACING: 0.0625
Info: NONBONDED TABLE SIZE: 705 POINTS
TCL: Running for 1500000 steps
ETITLE: TS BOND ANGLE DIHED IMPRP ELECT VDW BOUNDARY MISC KINETIC TOTAL TEMP POTENTIAL TOTALAVG TEMPAVG PRESSURE GPRESSURE VOLUME PRESSAVG GPRESSAVG
ENERGY: 0 3.5792 6.8475 4.0982 0.0000 -10687.5677 1493.9079 0.0000 0.0000 1765.5450 -7413.5900 302.9711 -9179.1350 -7413.5900 302.9711 838.7956 928.1079 29606.1253 838.7956 928.1079
ENERGY: 300000 3.5951 5.4372 3.3666 0.0000 -10619.1986 1458.6549 0.0000 0.0000 1708.2773 -7439.8675 293.1438 -9148.1448 -7430.2036 300.1346 47.6734 136.9387 30277.9336 316.2996 405.1247
ENERGY: 600000 4.7419 5.7614 6.5706 0.0000 -10681.7294 1475.6021 0.0000 0.0000 1773.5009 -7415.5525 304.3363 -9189.0534 -7418.0769 301.3523 567.1013 591.0387 29592.5259 340.3919 412.8746
ENERGY: 900000 1.7787 8.1483 3.6365 0.0000 -10647.4930 1423.4003 0.0000 0.0000 1792.2540 -7418.2754 307.5544 -9210.5293 -7427.5722 301.7743 -76.8749 -27.1908 30045.9556 248.7597 314.8999
ENERGY: 1200000 4.4124 12.3570 2.2796 0.0000 -10677.0551 1457.9714 0.0000 0.0000 1758.5699 -7441.4647 301.7741 -9200.0346 -7432.8570 300.5537 160.6955 193.0777 30136.1240 172.0808 240.0667
ENERGY: 1500000 2.3492 6.9916 4.3349 0.0000 -10586.0272 1382.8673 0.0000 0.0000 1777.0257 -7412.4586 304.9412 -9189.4843 -7424.0651 301.6245 -163.5973 -114.7949 29859.4760 127.3701 192.2807
TCL: Running FEP window  17: Lambda1 0.19999999999999968 Lambda2 0.1499999999999997 [dLambda -0.04999999999999999]
TCL: Setting parameter firsttimestep to 0
TCL: Setting parameter alchLambda to 0.19999999999999968
Info: NONBONDED TABLE R-SQUARED SPACING: 0.0625
Info: NONBONDED TABLE SIZE: 705 POINTS
TCL: Setting parameter alchLambda2 to 0.1499999999999997
Info: NONBONDED TABLE R-SQUARED SPACING: 0.0625
Info: NONBONDED TABLE SIZE: 705 POINTS
TCL: Running for 1500000 steps
ETITLE: TS BOND ANGLE DIHED IMPRP ELECT VDW BOUNDARY MISC KINETIC TOTAL TEMP POTENTIAL TOTALAVG TEMPAVG PRESSURE GPRESSURE VOLUME PRESSAVG GPRESSAVG
ENERGY: 0 2.3492 6.9916 4.3349 0.0000 -10586.0273 1383.1460 0.0000 0.0000 1776.2005 -7413.0051 304.7996 -9189.2057 -7413.0051 304.7996 -189.8209 -117.7146 29859.4760 -189.8209 -117.7146
ENERGY: 300000 2.0233 6.2789 2.5026 0.0000 -10486.4613 1343.1482 0.0000 0.0000 1761.0596 -7371.4488 302.2014 -9132.5084 -7394.4731 301.9807 -693.4386 -683.4215 30404.3682 -741.9504 -683.1016
ENERGY: 600000 2.3635 4.8836 3.4729 0.0000 -10641.0913 1417.4211 0.0000 0.0000 1779.0989 -7433.8513 305.2969 -9212.9502 -7389.2992 304.3213 59.0214 50.8609 29815.7512 -365.6869 -312.4728
ENERGY: 900000 3.4826 4.9047 1.8264 0.0000 -10506.8708 1373.6580 0.0000 0.0000 1698.8703 -7424.1287 291.5296 -9122.9991 -7404.1301 302.1375 -432.4544 -432.0756 30317.0579 -269.8854 -219.3956
ENERGY: 1200000 3.6708 11.3964 2.9571 0.0000 -10558.5779 1407.2780 0.0000 0.0000 1794.5807 -7338.6949 307.9537 -9133.2756 -7406.3011 301.8884 -182.0470 -54.9760 30077.0107 -210.1615 -153.6531
ENERGY: 1500000 1.5394 6.8594 2.8533 0.0000 -10643.2246 1483.5007 0.0000 0.0000 1716.6031 -7431.8687 294.5725 -9148.4718 -7400.1148 301.4879 616.9415 794.6191 29573.2465 -114.6153 -51.8696
TCL: Running FEP window  18: Lambda1 0.1499999999999997 Lambda2 0.09999999999999969 [dLambda -0.05 ]
TCL: Setting parameter firsttimestep to 0
TCL: Setting parameter alchLambda to 0.1499999999999997
Info: NONBONDED TABLE R-SQUARED SPACING: 0.0625
Info: NONBONDED TABLE SIZE: 705 POINTS
TCL: Setting parameter alchLambda2 to 0.09999999999999969
Info: NONBONDED TABLE R-SQUARED SPACING: 0.0625
Info: NONBONDED TABLE SIZE: 705 POINTS
TCL: Running for 1500000 steps
ETITLE: TS BOND ANGLE DIHED IMPRP ELECT VDW BOUNDARY MISC KINETIC TOTAL TEMP POTENTIAL TOTALAVG TEMPAVG PRESSURE GPRESSURE VOLUME PRESSAVG GPRESSAVG
ENERGY: 0 1.5394 6.8594 2.8533 0.0000 -10643.2262 1483.5772 0.0000 0.0000 1715.7689 -7432.6280 294.4294 -9148.3969 -7432.6280 294.4294 697.8569 790.5882 29573.2465 697.8569 790.5882
ENERGY: 300000 6.7512 8.7267 3.2507 0.0000 -10602.3744 1420.6379 0.0000 0.0000 1714.7226 -7448.2853 294.2498 -9163.0079 -7447.2813 297.0220 -465.2268 -374.6314 30750.3295 -315.6288 -223.1235
ENERGY: 600000 3.7555 7.6583 3.0331 0.0000 -10647.4336 1490.9206 0.0000 0.0000 1767.9314 -7374.1348 303.3806 -9142.0662 -7399.1228 300.2711 500.0207 547.0442 29752.2244 -21.3023 70.0556
ENERGY: 900000 1.4642 4.1551 2.1397 0.0000 -10574.3021 1453.5676 0.0000 0.0000 1750.1078 -7362.8676 300.3220 -9112.9755 -7395.7580 301.7411 273.3224 385.7187 30278.4085 14.4788 99.7857
ENERGY: 1200000 2.8401 4.5330 5.3736 0.0000 -10581.6382 1427.9110 0.0000 0.0000 1745.8750 -7395.1056 299.5957 -9140.9806 -7398.7308 300.6367 -129.5930 -65.6665 30205.7787 -63.3927 16.2859
ENERGY: 1500000 2.4652 6.5079 3.5852 0.0000 -10489.9242 1354.4844 0.0000 0.0000 1773.5547 -7349.3267 304.3456 -9122.8814 -7397.9561 301.0397 -637.7189 -601.4059 30560.3056 -191.0748 -120.9511
TCL: Running FEP window  19: Lambda1 0.09999999999999969 Lambda2 0.049999999999999684 [dLambda -0.05 ]
TCL: Setting parameter firsttimestep to 0
TCL: Setting parameter alchLambda to 0.09999999999999969
Info: NONBONDED TABLE R-SQUARED SPACING: 0.0625
Info: NONBONDED TABLE SIZE: 705 POINTS
TCL: Setting parameter alchLambda2 to 0.049999999999999684
Info: NONBONDED TABLE R-SQUARED SPACING: 0.0625
Info: NONBONDED TABLE SIZE: 705 POINTS
TCL: Running for 1500000 steps
ETITLE: TS BOND ANGLE DIHED IMPRP ELECT VDW BOUNDARY MISC KINETIC TOTAL TEMP POTENTIAL TOTALAVG TEMPAVG PRESSURE GPRESSURE VOLUME PRESSAVG GPRESSAVG
ENERGY: 0 2.4652 6.5079 3.5852 0.0000 -10489.9244 1354.3456 0.0000 0.0000 1772.6885 -7350.3320 304.1969 -9123.0205 -7350.3320 304.1969 -680.6301 -608.7653 30560.3056 -680.6301 -608.7653
ENERGY: 300000 2.5306 11.2714 2.6378 0.0000 -10652.1935 1421.7656 0.0000 0.0000 1762.6659 -7451.3222 302.4770 -9213.9880 -7421.5203 299.8510 -65.8361 -1.5215 29490.3212 -49.9447 -1.9654
ENERGY: 600000 3.1670 5.6686 5.3600 0.0000 -10589.1103 1419.1454 0.0000 0.0000 1756.0346 -7399.7346 301.3391 -9155.7692 -7423.0902 299.8378 -142.9687 -20.2785 30046.5470 -91.3085 -23.4192
ENERGY: 900000 5.1836 9.4701 3.0836 0.0000 -10542.9640 1428.6543 0.0000 0.0000 1758.0146 -7338.5578 301.6788 -9096.5724 -7413.6910 301.0233 177.6120 248.1531 29873.3489 -112.6497 -48.9191
ENERGY: 1200000 2.2972 5.8893 6.0941 0.0000 -10548.7209 1358.9706 0.0000 0.0000 1718.2292 -7457.2405 294.8516 -9175.4697 -7412.2249 300.6448 -554.1166 -456.0987 29870.4530 -120.6776 -56.8204
ENERGY: 1500000 4.8720 7.2901 3.0926 0.0000 -10605.4488 1388.1778 0.0000 0.0000 1772.1034 -7429.9129 304.0965 -9202.0163 -7412.0740 300.5286 -480.2328 -368.2608 29909.3650 -192.7747 -124.0249
TCL: Running FEP window  20: Lambda1 0.049999999999999684 Lambda2 0.0    [dLambda -0.049999999999999684]
TCL: Setting parameter firsttimestep to 0
TCL: Setting parameter alchLambda to 0.049999999999999684
Info: NONBONDED TABLE R-SQUARED SPACING: 0.0625
Info: NONBONDED TABLE SIZE: 705 POINTS
TCL: Setting parameter alchLambda2 to 0.0
Info: NONBONDED TABLE R-SQUARED SPACING: 0.0625
Info: NONBONDED TABLE SIZE: 705 POINTS
TCL: Running for 1500000 steps
ETITLE: TS BOND ANGLE DIHED IMPRP ELECT VDW BOUNDARY MISC KINETIC TOTAL TEMP POTENTIAL TOTALAVG TEMPAVG PRESSURE GPRESSURE VOLUME PRESSAVG GPRESSAVG
ENERGY: 0 4.8719 7.2901 3.0926 0.0000 -10605.4495 1388.3649 0.0000 0.0000 1771.2086 -7430.6213 303.9429 -9201.8299 -7430.6213 303.9429 -469.6169 -370.1458 29909.3650 -469.6169 -370.1458
ENERGY: 300000 2.1015 5.5792 4.4519 0.0000 -10486.4850 1353.1667 0.0000 0.0000 1725.0896 -7396.0961 296.0288 -9121.1857 -7399.4993 303.3212 -695.7641 -647.4498 30355.7460 -394.0072 -347.8354
ENERGY: 600000 6.6670 6.6632 2.5589 0.0000 -10541.3338 1394.1312 0.0000 0.0000 1767.3675 -7363.9460 303.2838 -9131.3135 -7412.0444 301.6211 -368.8796 -261.8174 29689.5145 -222.4598 -165.7961
ENERGY: 900000 1.0704 7.8845 3.0284 0.0000 -10704.5522 1531.1573 0.0000 0.0000 1747.0565 -7414.3551 299.7984 -9161.4116 -7411.2000 301.0029 765.0375 871.5199 30186.2972 -135.9736 -67.9568
ENERGY: 1200000 1.6196 8.1102 5.2396 0.0000 -10502.4955 1392.2909 0.0000 0.0000 1703.6671 -7391.5680 292.3527 -9095.2351 -7409.5714 300.1081 -191.6353 -150.3719 30081.6199 -169.6656 -105.0490
ENERGY: 1500000 6.0873 6.2650 2.1214 0.0000 -10502.9069 1377.7354 0.0000 0.0000 1707.0849 -7403.6130 292.9392 -9110.6979 -7411.6307 299.6150 -490.0742 -417.5441 30385.1348 -165.2340 -99.0192
TCL: Exiting due to exit command.
