Info: SIMULATION PARAMETERS:
Info: TIMESTEP               2
Info: NUMBER OF STEPS        0
Info: STEPS PER CYCLE        10
Info: PERIODIC CELL BASIS 1  33.1394 0 0
Info: PERIODIC CELL BASIS 2  0 28.5098 0
Info: PERIODIC CELL BASIS 3  0 0 32.0924
Info: PERIODIC CELL CENTER   0 0 0
Info: WRAPPING WATERS AROUND PERIODIC BOUNDARIES ON OUTPUT.
Info: WRAPPING ALL CLUSTERS AROUND PERIODIC BOUNDARIES ON OUTPUT.
Info: FIRST LDB TIMESTEP     50
Info: LAST LDB TIMESTEP     -1
Info: HOM BACKGROUND SCALING 1
Info: PME BACKGROUND SCALING 1
Info: MIN ATOMS PER PATCH    40
Info: EMPTY PATCH LOAD       40 ATOMS
Info: VELOCITY FILE          mobley_2607611_equil.vel
Info: CENTER OF MASS MOVING INITIALLY? NO
Info: DIELECTRIC             1
Info: EXCLUDE                SCALED ONE-FOUR
Info: 1-4 ELECTROSTATICS SCALED BY 0.833333
Info: MODIFIED 1-4 VDW PARAMETERS WILL BE USED
Info: DCD FILENAME           mobley_2607611_prod.dcd
Info: DCD FREQUENCY          100000
Info: DCD FIRST STEP         100000
Info: DCD FILE WILL CONTAIN UNIT CELL DATA
Info: XST FILENAME           mobley_2607611_prod.xst
Info: XST FREQUENCY          100000
Info: NO VELOCITY DCD OUTPUT
Info: NO FORCE DCD OUTPUT
Info: OUTPUT FILENAME        mobley_2607611_prod
Info: BINARY OUTPUT FILES WILL BE USED
Info: RESTART FILENAME       mobley_2607611_prod.restart
Info: RESTART FREQUENCY      100000
Info: BINARY RESTART FILES WILL BE USED
Info: CUTOFF                 9
Info: PAIRLIST DISTANCE      11
Info: PAIRLIST SHRINK RATE   0.01
Info: PAIRLIST GROW RATE     0.01
Info: PAIRLIST TRIGGER       0.3
Info: PAIRLISTS PER CYCLE    2
Info: PAIRLISTS ENABLED
Info: MARGIN                 2
Info: HYDROGEN GROUP CUTOFF  2.5
Info: PATCH DIMENSION        15.5
Info: ENERGY OUTPUT STEPS    100000
Info: ENERGY EVALUATION STEPS    100000
Info: OUTPUT ENERGY PRECISION 4
Info: CROSSTERM ENERGY INCLUDED IN DIHEDRAL
Info: TIMING OUTPUT STEPS    1000000
Info: PRESSURE OUTPUT STEPS  100000
Info: ALCHEMICAL FEP ON
Info: FEP CURRENT LAMBDA VALUE     1
Info: FEP COMPARISON LAMBDA VALUE  0.95
Info: FEP INTRA-ALCHEMICAL NON-BONDED INTERACTIONS WILL BE RETAINED
Info: FEP INTRA-ALCHEMICAL BONDED INTERACTIONS WILL BE RETAINED
Info: FEP VDW SHIFTING COEFFICIENT 5
Info: FEP ELEC. ACTIVE FOR ANNIHILATED PARTICLES BETWEEN LAMBDA = 0 AND LAMBDA = 0.5
Info: FEP ELEC. ACTIVE FOR EXNIHILATED PARTICLES BETWEEN LAMBDA = 0.5 AND LAMBDA = 1
Info: FEP VDW ACTIVE FOR ANNIHILATED PARTICLES BETWEEN LAMBDA = 0 AND LAMBDA = 1
Info: FEP VDW ACTIVE FOR EXNIHILATED PARTICLES BETWEEN LAMBDA = 0 AND LAMBDA = 1
Info: FEP BOND ACTIVE FOR ANNIHILATED PARTICLES BETWEEN LAMBDA = 1 AND LAMBDA = 1
Info: FEP BOND ACTIVE FOR EXNIHILATED PARTICLES BETWEEN LAMBDA = 0 AND LAMBDA = 0
Info: LANGEVIN DYNAMICS ACTIVE
Info: LANGEVIN TEMPERATURE   300
Info: LANGEVIN USING BBK INTEGRATOR
Info: LANGEVIN DAMPING COEFFICIENT IS 1 INVERSE PS
Info: LANGEVIN DYNAMICS APPLIED TO HYDROGENS
Info: LANGEVIN PISTON PRESSURE CONTROL ACTIVE
Info:        TARGET PRESSURE IS 1.01325 BAR
Info:     OSCILLATION PERIOD IS 50 FS
Info:             DECAY TIME IS 25 FS
Info:     PISTON TEMPERATURE IS 300 K
Info:       PRESSURE CONTROL IS GROUP-BASED
Info:    INITIAL STRAIN RATE IS -0.000401417 -0.000401417 -0.000401417
Info:       CELL FLUCTUATION IS ISOTROPIC
Info: PARTICLE MESH EWALD (PME) ACTIVE
Info: PME TOLERANCE               1e-06
Info: PME EWALD COEFFICIENT       0.348832
Info: PME INTERPOLATION ORDER     4
Info: PME GRID DIMENSIONS         36 32 36
Info: PME MAXIMUM GRID SPACING    1
Info: PME CALCULATION WILL BE PERFORMED ON GPU
Info: FULL ELECTROSTATIC EVALUATION FREQUENCY      2
Info: USING VERLET I (r-RESPA) MTS SCHEME.
Info: C1 SPLITTING OF LONG RANGE ELECTROSTATICS
Info: PLACING ATOMS IN PATCHES BY HYDROGEN GROUPS
Info: RIGID BONDS TO HYDROGEN : ALL
Info:         ERROR TOLERANCE : 1e-08
Info:          MAX ITERATIONS : 100
Info: RIGID WATER USING SETTLE ALGORITHM
Info: RANDOM NUMBER SEED     1744030585
Info: USE HYDROGEN BONDS?    NO
Info: Using AMBER format force field!
Info: AMBER PARM FILE        mobley_2607611.prmtop
Info: COORDINATE PDB         mobley_2607611.pdb
Info: Exclusions will be read from PARM file!
Info: SCNB (VDW SCALING)     2
Info: USING ARITHMETIC MEAN TO COMBINE L-J SIGMA PARAMETERS
Info: BINARY COORDINATES     mobley_2607611_equil.coor
Info: SUMMARY OF PARAMETERS:
Info: 9 BONDS
Info: 12 ANGLES
Info:   12 HARMONIC
Info:   0 COSINE-BASED
Info: 20 DIHEDRAL
Info: 0 IMPROPER
Info: 0 CROSSTERM
Info: 0 VDW
Info: 36 VDW_PAIRS
Info: 0 NBTHOLE_PAIRS
Info: To read alchdata from file: mobley_2607611.pdb
Info: To read alchflag data from column: 5
Info: STRUCTURE SUMMARY:
Info: 2939 ATOMS
Info: 2938 BONDS
Info: 46 ANGLES
Info: 75 DIHEDRALS
Info: 0 IMPROPERS
Info: 0 CROSSTERMS
Info: 3040 EXCLUSIONS
Info: 2929 RIGID BONDS
Info: ALCH: 0 ATOMS TO DISAPPEAR IN FINAL STATE
Info: ALCH: 26 ATOMS TO APPEAR IN FINAL STATE
Info: 5888 DEGREES OF FREEDOM
Info: 981 HYDROGEN GROUPS
Info: 4 ATOMS IN LARGEST HYDROGEN GROUP
Info: 981 MIGRATION GROUPS
Info: 4 ATOMS IN LARGEST MIGRATION GROUP
Info: TOTAL MASS = 17637.7 amu
Info: TOTAL CHARGE = -0.000200011 e
Info: MASS DENSITY = 0.965964 g/cm^3
Info: ATOM DENSITY = 0.09693 atoms/A^3
Info: ADDED 0 IMPLICIT EXCLUSIONS
Info: NONBONDED TABLE R-SQUARED SPACING: 0.0625
Info: NONBONDED TABLE SIZE: 705 POINTS
Info: REMOVING COM VELOCITY 0.0462605 -0.13011 0.0793896
Info: Use 3D box decompostion in PME FFT.
Info: Updated CUDA force table with 4096 elements.
Info: Updated CUDA LJ table with 8 x 8 elements.
Info: Found 29 unique exclusion lists needing 104 bytes
TCL: Running for 1500000 steps
ETITLE: TS BOND ANGLE DIHED IMPRP ELECT VDW BOUNDARY MISC KINETIC TOTAL TEMP POTENTIAL TOTALAVG TEMPAVG PRESSURE GPRESSURE VOLUME PRESSAVG GPRESSAVG
ENERGY: 0 1.7294 14.8499 8.7280 0.0000 -10715.9295 1493.5628 0.0000 0.0000 1734.1878 -7462.8717 296.4276 -9197.0595 -7462.8717 296.4276 461.5576 541.6229 30320.8494 461.5576 541.6229
ENERGY: 300000 2.5796 12.5092 7.1268 0.0000 -10643.1820 1416.7429 0.0000 0.0000 1764.8429 -7439.3806 301.6676 -9204.2235 -7423.7522 303.4789 -188.2837 -70.9088 30191.8641 73.1176 176.2567
ENERGY: 600000 1.5387 10.7165 8.5041 0.0000 -10592.0635 1388.9865 0.0000 0.0000 1808.7605 -7373.5573 309.1745 -9182.3178 -7439.8616 303.1900 -88.6619 11.5259 30085.0559 -72.6059 17.2382
ENERGY: 900000 2.9843 11.1724 5.6928 0.0000 -10590.3263 1377.0243 0.0000 0.0000 1768.7598 -7424.6926 302.3371 -9193.4525 -7440.0213 302.3250 -74.6480 -117.2994 30054.3805 -156.2870 -81.8638
ENERGY: 1200000 2.3560 12.2381 9.1337 0.0000 -10588.2478 1420.5045 0.0000 0.0000 1767.4218 -7376.5938 302.1084 -9144.0155 -7438.1737 301.8860 125.0256 94.3415 30715.5324 -101.8045 -43.4946
ENERGY: 1500000 3.3773 11.8773 9.7642 0.0000 -10578.1165 1342.1491 0.0000 0.0000 1718.5430 -7492.4056 293.7535 -9210.9486 -7436.2842 301.4164 -774.1849 -718.8131 30629.6969 -197.2817 -134.6322
TCL: Running FEP window   2: Lambda1 0.95   Lambda2 0.8999999999999999 [dLambda -0.050000000000000044]
TCL: Setting parameter firsttimestep to 0
TCL: Setting parameter alchLambda to 0.95
Info: NONBONDED TABLE R-SQUARED SPACING: 0.0625
Info: NONBONDED TABLE SIZE: 705 POINTS
TCL: Setting parameter alchLambda2 to 0.8999999999999999
Info: NONBONDED TABLE R-SQUARED SPACING: 0.0625
Info: NONBONDED TABLE SIZE: 705 POINTS
TCL: Running for 1500000 steps
ETITLE: TS BOND ANGLE DIHED IMPRP ELECT VDW BOUNDARY MISC KINETIC TOTAL TEMP POTENTIAL TOTALAVG TEMPAVG PRESSURE GPRESSURE VOLUME PRESSAVG GPRESSAVG
ENERGY: 0 3.3773 11.8773 9.7642 0.0000 -10576.5768 1340.4493 0.0000 0.0000 1717.6774 -7493.4313 293.6055 -9211.1087 -7493.4313 293.6055 -824.3102 -754.3472 30629.6969 -824.3102 -754.3472
ENERGY: 300000 2.4739 11.8910 6.3935 0.0000 -10737.2134 1503.6901 0.0000 0.0000 1779.8497 -7432.9151 304.2327 -9212.7649 -7488.2127 300.1048 480.5589 547.9764 30271.1289 -71.2711 -7.8329
ENERGY: 600000 2.6129 15.4564 8.8904 0.0000 -10647.0104 1469.5252 0.0000 0.0000 1781.5267 -7368.9988 304.5194 -9150.5255 -7437.2117 300.7964 466.2638 540.6789 30210.7270 -5.4655 55.2614
ENERGY: 900000 2.8781 7.1129 6.0094 0.0000 -10686.2470 1429.8581 0.0000 0.0000 1736.3637 -7504.0249 296.7996 -9240.3886 -7440.1133 301.0521 -111.0223 -35.5244 30168.8769 71.6563 121.9120
ENERGY: 1200000 1.9693 9.2234 8.7265 0.0000 -10541.8030 1348.5107 0.0000 0.0000 1701.7723 -7471.6007 290.8868 -9173.3730 -7436.5707 300.4174 -759.5563 -664.8387 30664.1436 39.9445 103.1729
ENERGY: 1500000 3.6993 12.8394 8.9157 0.0000 -10593.4895 1389.2688 0.0000 0.0000 1774.2129 -7404.5532 303.2692 -9178.7661 -7430.9547 300.8412 -109.9927 -70.0321 30038.1173 52.5591 113.9609
TCL: Running FEP window   3: Lambda1 0.8999999999999999 Lambda2 0.8499999999999999 [dLambda -0.050000000000000044]
TCL: Setting parameter firsttimestep to 0
TCL: Setting parameter alchLambda to 0.8999999999999999
Info: NONBONDED TABLE R-SQUARED SPACING: 0.0625
Info: NONBONDED TABLE SIZE: 705 POINTS
TCL: Setting parameter alchLambda2 to 0.8499999999999999
Info: NONBONDED TABLE R-SQUARED SPACING: 0.0625
Info: NONBONDED TABLE SIZE: 705 POINTS
TCL: Running for 1500000 steps
ETITLE: TS BOND ANGLE DIHED IMPRP ELECT VDW BOUNDARY MISC KINETIC TOTAL TEMP POTENTIAL TOTALAVG TEMPAVG PRESSURE GPRESSURE VOLUME PRESSAVG GPRESSAVG
ENERGY: 0 3.6993 12.8394 8.9157 0.0000 -10592.4081 1388.7000 0.0000 0.0000 1773.3390 -7404.9147 303.1198 -9178.2537 -7404.9147 303.1198 -163.1928 -90.7747 30038.1173 -163.1928 -90.7747
ENERGY: 300000 4.1970 9.0653 7.5677 0.0000 -10567.7721 1370.7738 0.0000 0.0000 1714.7561 -7461.4121 293.1062 -9176.1682 -7466.2500 299.3337 -327.0219 -301.6307 29973.3463 -211.6808 -184.5220
ENERGY: 600000 4.9846 12.6504 9.2323 0.0000 -10532.9858 1335.9571 0.0000 0.0000 1747.0733 -7423.0880 298.6302 -9170.1613 -7434.5615 302.0389 -621.6377 -573.9937 30349.2105 -240.4941 -194.0126
ENERGY: 900000 2.1688 7.8759 8.6718 0.0000 -10710.2226 1526.6050 0.0000 0.0000 1743.0925 -7421.8086 297.9498 -9164.9011 -7451.8998 300.7423 656.6447 699.8096 30403.0726 -121.3845 -69.4453
ENERGY: 1200000 2.7476 12.8699 8.4725 0.0000 -10793.1528 1488.4373 0.0000 0.0000 1724.2847 -7556.3408 294.7349 -9280.6255 -7454.4141 300.0242 152.1338 178.2497 30230.3077 -138.7026 -95.8524
ENERGY: 1500000 1.8454 13.8750 7.9023 0.0000 -10661.6897 1441.8430 0.0000 0.0000 1757.0456 -7439.1785 300.3348 -9196.2240 -7453.4987 300.3416 357.5932 386.8991 29990.5430 -101.7072 -47.1742
TCL: Running FEP window   4: Lambda1 0.8499999999999999 Lambda2 0.7999999999999998 [dLambda -0.050000000000000044]
TCL: Setting parameter firsttimestep to 0
TCL: Setting parameter alchLambda to 0.8499999999999999
Info: NONBONDED TABLE R-SQUARED SPACING: 0.0625
Info: NONBONDED TABLE SIZE: 705 POINTS
TCL: Setting parameter alchLambda2 to 0.7999999999999998
Info: NONBONDED TABLE R-SQUARED SPACING: 0.0625
Info: NONBONDED TABLE SIZE: 705 POINTS
TCL: Running for 1500000 steps
ETITLE: TS BOND ANGLE DIHED IMPRP ELECT VDW BOUNDARY MISC KINETIC TOTAL TEMP POTENTIAL TOTALAVG TEMPAVG PRESSURE GPRESSURE VOLUME PRESSAVG GPRESSAVG
ENERGY: 0 1.8454 13.8750 7.9023 0.0000 -10661.2353 1442.4820 0.0000 0.0000 1756.1833 -7438.9473 300.1874 -9195.1306 -7438.9473 300.1874 281.2820 379.4011 29990.5430 281.2820 379.4011
ENERGY: 300000 5.3176 14.0000 6.5223 0.0000 -10717.8999 1475.1977 0.0000 0.0000 1795.5017 -7421.3606 306.9081 -9216.8623 -7384.0042 309.0614 89.9152 151.6494 30491.1383 -75.3684 13.8640
ENERGY: 600000 1.9004 11.5268 9.8078 0.0000 -10665.0301 1465.4078 0.0000 0.0000 1835.3226 -7341.0648 313.7148 -9176.3874 -7391.3245 307.9438 430.3967 507.4129 30130.6612 66.6894 150.2871
ENERGY: 900000 1.9253 10.2536 9.0107 0.0000 -10544.0366 1354.6859 0.0000 0.0000 1716.3750 -7451.7861 293.3829 -9168.1611 -7399.8307 305.4797 -478.7686 -428.9295 30065.0499 -188.3404 -110.7283
ENERGY: 1200000 1.1395 14.0457 7.0301 0.0000 -10635.4113 1438.1180 0.0000 0.0000 1729.6121 -7445.4660 295.6455 -9175.0781 -7404.5949 303.5103 248.9619 356.8402 30017.3816 -56.6240 18.0097
ENERGY: 1500000 2.9111 15.0963 8.9742 0.0000 -10589.3895 1418.0136 0.0000 0.0000 1741.0642 -7403.3300 297.6030 -9144.3943 -7409.6554 302.5278 -44.8603 79.8709 30270.0692 -17.2451 59.7754
TCL: Running FEP window   5: Lambda1 0.7999999999999998 Lambda2 0.7499999999999998 [dLambda -0.050000000000000044]
TCL: Setting parameter firsttimestep to 0
TCL: Setting parameter alchLambda to 0.7999999999999998
Info: NONBONDED TABLE R-SQUARED SPACING: 0.0625
Info: NONBONDED TABLE SIZE: 705 POINTS
TCL: Setting parameter alchLambda2 to 0.7499999999999998
Info: NONBONDED TABLE R-SQUARED SPACING: 0.0625
Info: NONBONDED TABLE SIZE: 705 POINTS
TCL: Running for 1500000 steps
ETITLE: TS BOND ANGLE DIHED IMPRP ELECT VDW BOUNDARY MISC KINETIC TOTAL TEMP POTENTIAL TOTALAVG TEMPAVG PRESSURE GPRESSURE VOLUME PRESSAVG GPRESSAVG
ENERGY: 0 2.9111 15.0963 8.9742 0.0000 -10588.3091 1418.3865 0.0000 0.0000 1740.1982 -7402.7429 297.4550 -9142.9410 -7402.7429 297.4550 -10.8694 72.2101 30270.0692 -10.8694 72.2101
ENERGY: 300000 2.3505 12.4824 10.8274 0.0000 -10669.4896 1449.9018 0.0000 0.0000 1746.0722 -7447.8552 298.4591 -9193.9274 -7444.5277 298.4557 382.7377 442.1582 29953.7935 476.8719 538.7123
ENERGY: 600000 1.3720 6.2932 8.6830 0.0000 -10519.7784 1363.1417 0.0000 0.0000 1811.2813 -7329.0073 309.6054 -9140.2886 -7426.1226 299.8181 -117.7791 -120.9651 30199.1497 297.5187 351.4582
ENERGY: 900000 4.8027 10.0795 7.8435 0.0000 -10649.9230 1388.3854 0.0000 0.0000 1743.8176 -7494.9943 298.0737 -9238.8120 -7432.4236 299.2446 -396.2436 -271.5828 30062.7898 98.7265 170.9102
ENERGY: 1200000 6.6197 11.0690 9.4594 0.0000 -10811.6475 1527.7100 0.0000 0.0000 1723.1592 -7533.6302 294.5425 -9256.7895 -7437.8657 299.2298 779.0302 843.8274 29584.5154 141.0585 212.3645
ENERGY: 1500000 3.5839 11.0278 8.1029 0.0000 -10522.2483 1338.9452 0.0000 0.0000 1780.1769 -7380.4116 304.2887 -9160.5886 -7428.9678 300.0500 -808.4160 -688.2798 30441.6642 9.6110 88.6299
TCL: Running FEP window   6: Lambda1 0.7499999999999998 Lambda2 0.6999999999999997 [dLambda -0.050000000000000044]
TCL: Setting parameter firsttimestep to 0
TCL: Setting parameter alchLambda to 0.7499999999999998
Info: NONBONDED TABLE R-SQUARED SPACING: 0.0625
Info: NONBONDED TABLE SIZE: 705 POINTS
TCL: Setting parameter alchLambda2 to 0.6999999999999997
Info: NONBONDED TABLE R-SQUARED SPACING: 0.0625
Info: NONBONDED TABLE SIZE: 705 POINTS
TCL: Running for 1500000 steps
ETITLE: TS BOND ANGLE DIHED IMPRP ELECT VDW BOUNDARY MISC KINETIC TOTAL TEMP POTENTIAL TOTALAVG TEMPAVG PRESSURE GPRESSURE VOLUME PRESSAVG GPRESSAVG
ENERGY: 0 3.5839 11.0278 8.1029 0.0000 -10520.5022 1337.4158 0.0000 0.0000 1779.2990 -7381.0728 304.1386 -9160.3718 -7381.0728 304.1386 -815.8026 -720.8470 30441.6642 -815.8026 -720.8470
ENERGY: 300000 2.9666 15.1293 6.4672 0.0000 -10526.2785 1400.5721 0.0000 0.0000 1736.4906 -7364.6527 296.8213 -9101.1432 -7388.2744 299.5121 -325.6804 -266.1036 30879.5052 -413.9229 -342.8390
ENERGY: 600000 1.6014 11.8473 7.4688 0.0000 -10625.2068 1378.5928 0.0000 0.0000 1795.8194 -7429.8770 306.9624 -9225.6964 -7398.7418 301.8343 -314.8976 -230.1966 30054.7250 -407.2638 -329.3832
ENERGY: 900000 2.3264 13.2217 8.7809 0.0000 -10679.9090 1452.4103 0.0000 0.0000 1664.1509 -7539.0188 284.4561 -9203.1697 -7428.1463 299.0737 231.9519 257.5438 30075.1148 -391.7720 -323.9247
ENERGY: 1200000 1.2628 12.0295 6.8907 0.0000 -10681.6578 1435.8330 0.0000 0.0000 1749.6303 -7476.0115 299.0673 -9225.6418 -7440.4377 299.5635 32.3641 131.0543 30096.2312 -273.7315 -204.0440
ENERGY: 1500000 2.1274 10.1430 8.8874 0.0000 -10571.4825 1420.5001 0.0000 0.0000 1764.5444 -7365.2802 301.6166 -9129.8246 -7421.1927 300.6407 184.2187 334.3251 29939.2476 -260.2604 -191.5532
TCL: Running FEP window   7: Lambda1 0.6999999999999997 Lambda2 0.6499999999999997 [dLambda -0.050000000000000044]
TCL: Setting parameter firsttimestep to 0
TCL: Setting parameter alchLambda to 0.6999999999999997
Info: NONBONDED TABLE R-SQUARED SPACING: 0.0625
Info: NONBONDED TABLE SIZE: 705 POINTS
TCL: Setting parameter alchLambda2 to 0.6499999999999997
Info: NONBONDED TABLE R-SQUARED SPACING: 0.0625
Info: NONBONDED TABLE SIZE: 705 POINTS
TCL: Running for 1500000 steps
ETITLE: TS BOND ANGLE DIHED IMPRP ELECT VDW BOUNDARY MISC KINETIC TOTAL TEMP POTENTIAL TOTALAVG TEMPAVG PRESSURE GPRESSURE VOLUME PRESSAVG GPRESSAVG
ENERGY: 0 2.1274 10.1430 8.8874 0.0000 -10570.6000 1420.5655 0.0000 0.0000 1763.6920 -7365.1846 301.4709 -9128.8766 -7365.1846 301.4709 234.4883 323.2602 29939.2476 234.4883 323.2602
ENERGY: 300000 1.7754 10.7578 7.3935 0.0000 -10745.1128 1504.2739 0.0000 0.0000 1744.6706 -7476.2417 298.2195 -9220.9123 -7423.5622 299.6482 660.7041 688.5988 30193.0176 270.8020 329.6044
ENERGY: 600000 2.4785 11.1995 7.8783 0.0000 -10545.0373 1394.8493 0.0000 0.0000 1778.9818 -7349.6499 304.0844 -9128.6317 -7394.1791 301.5051 -32.6631 24.0063 30422.0684 52.2980 106.9401
ENERGY: 900000 1.3332 16.8206 6.2458 0.0000 -10511.7007 1409.6816 0.0000 0.0000 1760.5001 -7317.1195 300.9253 -9077.6196 -7378.7427 302.1369 402.1716 415.7668 30184.4976 75.3487 125.1194
ENERGY: 1200000 2.3226 10.8610 8.6582 0.0000 -10592.4369 1380.8135 0.0000 0.0000 1779.0020 -7410.7796 304.0878 -9189.7816 -7387.9971 301.6629 -159.7666 -129.3886 29976.2520 133.8134 185.0929
ENERGY: 1500000 4.0620 10.3721 7.9136 0.0000 -10544.4885 1349.4566 0.0000 0.0000 1788.3494 -7384.3348 305.6856 -9172.6842 -7393.8530 301.6930 -591.3126 -577.2334 30282.2296 -2.8680 41.8065
TCL: Running FEP window   8: Lambda1 0.6499999999999997 Lambda2 0.5999999999999996 [dLambda -0.050000000000000044]
TCL: Setting parameter firsttimestep to 0
TCL: Setting parameter alchLambda to 0.6499999999999997
Info: NONBONDED TABLE R-SQUARED SPACING: 0.0625
Info: NONBONDED TABLE SIZE: 705 POINTS
TCL: Setting parameter alchLambda2 to 0.5999999999999996
Info: NONBONDED TABLE R-SQUARED SPACING: 0.0625
Info: NONBONDED TABLE SIZE: 705 POINTS
TCL: Running for 1500000 steps
ETITLE: TS BOND ANGLE DIHED IMPRP ELECT VDW BOUNDARY MISC KINETIC TOTAL TEMP POTENTIAL TOTALAVG TEMPAVG PRESSURE GPRESSURE VOLUME PRESSAVG GPRESSAVG
ENERGY: 0 4.0620 10.3721 7.9136 0.0000 -10544.5681 1350.1132 0.0000 0.0000 1787.4509 -7384.6563 305.5320 -9172.1072 -7384.6563 305.5320 -666.9052 -585.6528 30282.2296 -666.9052 -585.6528
ENERGY: 300000 1.4833 11.4460 7.6902 0.0000 -10456.6355 1332.6994 0.0000 0.0000 1731.5865 -7371.7301 295.9830 -9103.3166 -7373.2799 302.2437 -694.8818 -593.5110 30663.5172 -441.9756 -363.5554
ENERGY: 600000 3.0348 8.5668 7.4398 0.0000 -10757.3283 1490.8272 0.0000 0.0000 1740.4808 -7506.9789 297.5033 -9247.4597 -7417.6635 300.9186 182.9600 227.9245 30239.4091 -284.3031 -205.3097
ENERGY: 900000 2.3502 8.3229 8.4694 0.0000 -10617.8868 1373.0073 0.0000 0.0000 1739.9345 -7485.8026 297.4099 -9225.7371 -7438.7032 301.0945 -540.5430 -487.4491 30229.4864 -284.5744 -219.3121
ENERGY: 1200000 1.0111 13.0087 7.5884 0.0000 -10663.1182 1435.5587 0.0000 0.0000 1782.8494 -7423.1018 304.7455 -9205.9512 -7431.6039 301.4925 200.2761 325.1396 29822.1175 -229.6608 -166.9861
ENERGY: 1500000 2.0579 5.9985 10.4623 0.0000 -10626.3800 1448.6453 0.0000 0.0000 1801.9349 -7357.2810 308.0078 -9159.2160 -7422.5214 302.5114 274.0251 359.1668 29868.7165 -195.1422 -134.1136
TCL: Running FEP window   9: Lambda1 0.5999999999999996 Lambda2 0.5499999999999996 [dLambda -0.050000000000000044]
TCL: Setting parameter firsttimestep to 0
TCL: Setting parameter alchLambda to 0.5999999999999996
Info: NONBONDED TABLE R-SQUARED SPACING: 0.0625
Info: NONBONDED TABLE SIZE: 705 POINTS
TCL: Setting parameter alchLambda2 to 0.5499999999999996
Info: NONBONDED TABLE R-SQUARED SPACING: 0.0625
Info: NONBONDED TABLE SIZE: 705 POINTS
TCL: Running for 1500000 steps
ETITLE: TS BOND ANGLE DIHED IMPRP ELECT VDW BOUNDARY MISC KINETIC TOTAL TEMP POTENTIAL TOTALAVG TEMPAVG PRESSURE GPRESSURE VOLUME PRESSAVG GPRESSAVG
ENERGY: 0 2.0579 5.9985 10.4623 0.0000 -10625.8635 1449.0356 0.0000 0.0000 1801.0799 -7357.2292 307.8616 -9158.3091 -7357.2292 307.8616 288.0130 351.8560 29868.7165 288.0130 351.8560
ENERGY: 300000 1.5164 14.0256 9.3496 0.0000 -10639.7734 1413.5169 0.0000 0.0000 1716.9142 -7484.4508 293.4750 -9201.3650 -7416.2162 300.6353 -220.1036 -101.6108 30037.0893 7.9981 64.6923
ENERGY: 600000 1.7466 12.2374 7.3596 0.0000 -10592.6987 1442.0347 0.0000 0.0000 1747.6354 -7381.6851 298.7263 -9129.3205 -7418.2148 299.7554 558.4347 624.0635 29955.2613 96.1109 151.3108
ENERGY: 900000 3.3101 8.4512 8.9446 0.0000 -10529.4630 1379.7065 0.0000 0.0000 1823.8039 -7305.2467 311.7459 -9129.0506 -7413.1638 301.2972 51.1977 143.6442 29986.1947 97.7540 156.4226
ENERGY: 1200000 2.6921 10.5424 6.4782 0.0000 -10622.8156 1382.8408 0.0000 0.0000 1778.7341 -7441.5279 304.0420 -9220.2619 -7413.0812 301.6633 -408.3698 -339.6189 30215.5218 -11.8117 44.3294
ENERGY: 1500000 4.5253 13.3853 7.2777 0.0000 -10482.0117 1312.3108 0.0000 0.0000 1720.4362 -7424.0765 294.0771 -9144.5127 -7418.5057 300.8182 -1290.1828 -1230.0756 30680.8644 -68.7902 -9.9785
TCL: Running FEP window  10: Lambda1 0.5499999999999996 Lambda2 0.4999999999999996 [dLambda -0.04999999999999999]
TCL: Setting parameter firsttimestep to 0
TCL: Setting parameter alchLambda to 0.5499999999999996
Info: NONBONDED TABLE R-SQUARED SPACING: 0.0625
Info: NONBONDED TABLE SIZE: 705 POINTS
TCL: Setting parameter alchLambda2 to 0.4999999999999996
Info: NONBONDED TABLE R-SQUARED SPACING: 0.0625
Info: NONBONDED TABLE SIZE: 705 POINTS
TCL: Running for 1500000 steps
ETITLE: TS BOND ANGLE DIHED IMPRP ELECT VDW BOUNDARY MISC KINETIC TOTAL TEMP POTENTIAL TOTALAVG TEMPAVG PRESSURE GPRESSURE VOLUME PRESSAVG GPRESSAVG
ENERGY: 0 4.5253 13.3853 7.2777 0.0000 -10481.7837 1312.6313 0.0000 0.0000 1719.6034 -7424.3608 293.9347 -9143.9642 -7424.3608 293.9347 -1318.1215 -1235.8930 30680.8644 -1318.1215 -1235.8930
ENERGY: 300000 3.7633 11.0285 7.5703 0.0000 -10589.0334 1398.5490 0.0000 0.0000 1797.4367 -7370.6856 307.2389 -9168.1222 -7411.8268 298.2933 -172.2321 -106.1860 30098.5817 -405.2689 -350.6268
ENERGY: 600000 1.3377 17.3504 8.0978 0.0000 -10580.2814 1428.6899 0.0000 0.0000 1699.5641 -7425.2416 290.5094 -9124.8057 -7413.1498 297.4248 37.8807 47.0612 30571.1496 -334.1075 -290.0483
ENERGY: 900000 3.2012 12.5300 7.7384 0.0000 -10485.9708 1354.6328 0.0000 0.0000 1781.3178 -7326.5506 304.4837 -9107.8684 -7422.4769 296.9535 -436.8050 -372.4009 30412.1192 -268.7944 -218.1659
ENERGY: 1200000 3.9072 16.7348 9.1794 0.0000 -10731.7120 1496.5003 0.0000 0.0000 1791.5860 -7413.8043 306.2388 -9205.3903 -7422.1177 298.2976 676.0194 689.8033 29853.9728 -189.2074 -135.5277
ENERGY: 1500000 2.1936 15.4152 8.3825 0.0000 -10660.6191 1507.5769 0.0000 0.0000 1768.0946 -7358.9563 302.2234 -9127.0509 -7416.0625 298.4932 872.9446 948.6576 29936.7529 -115.1704 -56.8945
TCL: Running FEP window  11: Lambda1 0.4999999999999996 Lambda2 0.4499999999999996 [dLambda -0.04999999999999999]
TCL: Setting parameter firsttimestep to 0
TCL: Setting parameter alchLambda to 0.4999999999999996
Info: NONBONDED TABLE R-SQUARED SPACING: 0.0625
Info: NONBONDED TABLE SIZE: 705 POINTS
TCL: Setting parameter alchLambda2 to 0.4499999999999996
Info: NONBONDED TABLE R-SQUARED SPACING: 0.0625
Info: NONBONDED TABLE SIZE: 705 POINTS
TCL: Running for 1500000 steps
ETITLE: TS BOND ANGLE DIHED IMPRP ELECT VDW BOUNDARY MISC KINETIC TOTAL TEMP POTENTIAL TOTALAVG TEMPAVG PRESSURE GPRESSURE VOLUME PRESSAVG GPRESSAVG
ENERGY: 0 2.1936 15.4152 8.3825 0.0000 -10659.9573 1508.0054 0.0000 0.0000 1767.2495 -7358.7111 302.0789 -9125.9606 -7358.7111 302.0789 872.3613 946.4655 29936.7529 872.3613 946.4655
ENERGY: 300000 2.5685 12.0429 8.1261 0.0000 -10763.1121 1457.3300 0.0000 0.0000 1692.7653 -7590.2793 289.3472 -9283.0446 -7417.4810 300.4198 -181.2635 -80.2116 30377.6466 150.1563 248.2219
ENERGY: 600000 7.4775 11.5753 9.9898 0.0000 -10707.6761 1469.5243 0.0000 0.0000 1796.9330 -7412.1761 307.1528 -9209.1091 -7415.1368 301.3794 419.2814 490.5583 29719.8245 247.0941 345.1060
ENERGY: 900000 6.9425 14.1244 10.3417 0.0000 -10737.6661 1522.5573 0.0000 0.0000 1770.5585 -7413.1417 302.6445 -9183.7002 -7400.0603 302.1311 1095.3360 1143.0673 29497.9455 279.9392 368.2525
ENERGY: 1200000 3.7596 10.1041 9.4021 0.0000 -10581.3123 1515.7035 0.0000 0.0000 1780.6618 -7261.6812 304.3715 -9042.3430 -7393.6903 302.2873 1015.8591 1116.1060 30115.4970 282.8398 366.8896
ENERGY: 1500000 1.3219 9.7479 6.6700 0.0000 -10694.0810 1493.8364 0.0000 0.0000 1748.3857 -7434.1190 298.8545 -9182.5047 -7406.2171 301.9192 512.0736 576.8478 30104.5767 210.5368 293.5330
TCL: Running FEP window  12: Lambda1 0.4499999999999996 Lambda2 0.39999999999999963 [dLambda -0.04999999999999999]
TCL: Setting parameter firsttimestep to 0
TCL: Setting parameter alchLambda to 0.4499999999999996
Info: NONBONDED TABLE R-SQUARED SPACING: 0.0625
Info: NONBONDED TABLE SIZE: 705 POINTS
TCL: Setting parameter alchLambda2 to 0.39999999999999963
Info: NONBONDED TABLE R-SQUARED SPACING: 0.0625
Info: NONBONDED TABLE SIZE: 705 POINTS
TCL: Running for 1500000 steps
ETITLE: TS BOND ANGLE DIHED IMPRP ELECT VDW BOUNDARY MISC KINETIC TOTAL TEMP POTENTIAL TOTALAVG TEMPAVG PRESSURE GPRESSURE VOLUME PRESSAVG GPRESSAVG
ENERGY: 0 1.3219 9.7479 6.6700 0.0000 -10694.0820 1494.4565 0.0000 0.0000 1747.5232 -7434.3623 298.7071 -9181.8856 -7434.3623 298.7071 497.3001 575.2278 30104.5767 497.3001 575.2278
ENERGY: 300000 2.8694 12.4683 7.9814 0.0000 -10595.5645 1423.8833 0.0000 0.0000 1843.0811 -7305.2809 315.0410 -9148.3621 -7401.1822 302.2536 34.1914 175.7889 30274.8257 90.3360 185.5660
ENERGY: 600000 2.7142 12.3877 7.3512 0.0000 -10586.0569 1338.2095 0.0000 0.0000 1762.6629 -7462.7315 301.2949 -9225.3943 -7410.2081 301.7122 -853.2248 -841.9337 30111.7746 -67.2342 7.4084
ENERGY: 900000 3.7992 10.2006 7.9110 0.0000 -10653.4230 1460.6271 0.0000 0.0000 1731.7261 -7439.1591 296.0069 -9170.8852 -7404.9009 300.7760 280.4393 369.5495 29955.0782 -29.2997 42.9544
ENERGY: 1200000 1.0436 10.5264 9.0194 0.0000 -10598.9121 1435.6052 0.0000 0.0000 1710.7934 -7431.9241 292.4288 -9142.7175 -7404.9869 300.7718 290.9006 320.2382 30021.8064 -86.6487 -12.7811
ENERGY: 1500000 1.4981 10.0053 7.3730 0.0000 -10478.4469 1365.9367 0.0000 0.0000 1770.3729 -7323.2609 302.6128 -9093.6337 -7402.5860 300.7654 -226.3159 -200.4502 30444.3046 -87.8601 -22.0631
TCL: Running FEP window  13: Lambda1 0.39999999999999963 Lambda2 0.34999999999999964 [dLambda -0.04999999999999999]
TCL: Setting parameter firsttimestep to 0
TCL: Setting parameter alchLambda to 0.39999999999999963
Info: NONBONDED TABLE R-SQUARED SPACING: 0.0625
Info: NONBONDED TABLE SIZE: 705 POINTS
TCL: Setting parameter alchLambda2 to 0.34999999999999964
Info: NONBONDED TABLE R-SQUARED SPACING: 0.0625
Info: NONBONDED TABLE SIZE: 705 POINTS
TCL: Running for 1500000 steps
ETITLE: TS BOND ANGLE DIHED IMPRP ELECT VDW BOUNDARY MISC KINETIC TOTAL TEMP POTENTIAL TOTALAVG TEMPAVG PRESSURE GPRESSURE VOLUME PRESSAVG GPRESSAVG
ENERGY: 0 1.4981 10.0053 7.3730 0.0000 -10478.4450 1366.2161 0.0000 0.0000 1769.5429 -7323.8096 302.4710 -9093.3525 -7323.8096 302.4710 -275.1018 -202.8842 30444.3046 -275.1018 -202.8842
ENERGY: 300000 3.9022 10.3957 7.6470 0.0000 -10644.3610 1404.8630 0.0000 0.0000 1730.3937 -7487.1595 295.7791 -9217.5532 -7393.3704 301.9565 -438.6576 -373.7459 30268.0242 -467.6550 -394.1638
ENERGY: 600000 2.1361 11.0713 9.5233 0.0000 -10753.0046 1510.9412 0.0000 0.0000 1724.7772 -7494.5555 294.8191 -9219.3327 -7418.1170 300.7126 770.9432 862.5805 29437.9524 -221.4885 -139.9181
ENERGY: 900000 2.2410 15.0262 7.1550 0.0000 -10814.7460 1468.0550 0.0000 0.0000 1728.7845 -7593.4843 295.5040 -9322.2687 -7435.5559 300.1536 -55.3431 -32.9650 29928.7618 -189.1806 -111.4413
ENERGY: 1200000 2.5037 11.6116 7.6283 0.0000 -10530.6289 1371.1137 0.0000 0.0000 1723.3843 -7414.3872 294.5810 -9137.7715 -7426.5323 300.3067 -32.8726 17.7829 30045.9989 -199.0321 -128.4520
ENERGY: 1500000 1.1992 11.5799 7.8731 0.0000 -10641.8170 1402.1276 0.0000 0.0000 1767.4381 -7451.5992 302.1112 -9219.0373 -7431.4960 299.9456 -221.0211 -72.0902 29968.4234 -261.4496 -190.2635
TCL: Running FEP window  14: Lambda1 0.34999999999999964 Lambda2 0.29999999999999966 [dLambda -0.04999999999999999]
TCL: Setting parameter firsttimestep to 0
TCL: Setting parameter alchLambda to 0.34999999999999964
Info: NONBONDED TABLE R-SQUARED SPACING: 0.0625
Info: NONBONDED TABLE SIZE: 705 POINTS
TCL: Setting parameter alchLambda2 to 0.29999999999999966
Info: NONBONDED TABLE R-SQUARED SPACING: 0.0625
Info: NONBONDED TABLE SIZE: 705 POINTS
TCL: Running for 1500000 steps
ETITLE: TS BOND ANGLE DIHED IMPRP ELECT VDW BOUNDARY MISC KINETIC TOTAL TEMP POTENTIAL TOTALAVG TEMPAVG PRESSURE GPRESSURE VOLUME PRESSAVG GPRESSAVG
ENERGY: 0 1.1992 11.5799 7.8731 0.0000 -10641.8164 1401.9917 0.0000 0.0000 1766.5146 -7452.6579 301.9533 -9219.1725 -7452.6579 301.9533 -156.9941 -80.6219 29968.4234 -156.9941 -80.6219
ENERGY: 300000 5.9943 15.9109 5.7042 0.0000 -10605.3386 1418.3364 0.0000 0.0000 1780.2532 -7379.1397 304.3017 -9159.3929 -7440.3459 300.9594 -243.3885 -151.4722 30446.5366 -294.4223 -211.1736
ENERGY: 600000 4.6802 16.5039 8.4842 0.0000 -10527.9592 1361.2107 0.0000 0.0000 1773.4240 -7363.6562 303.1344 -9137.0802 -7446.0703 300.4958 -511.4258 -458.9840 30379.1912 -377.2486 -317.4099
ENERGY: 900000 4.0612 8.9728 7.9472 0.0000 -10708.6262 1508.0871 0.0000 0.0000 1767.5436 -7412.0143 302.1292 -9179.5579 -7436.6185 300.1040 977.2070 984.6493 29821.7555 -287.6796 -228.2937
ENERGY: 1200000 3.3788 10.4401 8.1367 0.0000 -10604.3731 1419.4792 0.0000 0.0000 1778.8921 -7384.0462 304.0690 -9162.9383 -7426.6678 301.4615 -248.6279 -160.2792 30498.3943 -173.2457 -114.5633
ENERGY: 1500000 1.8882 13.5116 7.7842 0.0000 -10612.1119 1429.8975 0.0000 0.0000 1742.9898 -7416.0407 297.9322 -9159.0304 -7425.0648 301.3225 -176.0582 -55.3177 30283.6521 -229.7717 -171.3484
TCL: Running FEP window  15: Lambda1 0.29999999999999966 Lambda2 0.24999999999999967 [dLambda -0.04999999999999999]
TCL: Setting parameter firsttimestep to 0
TCL: Setting parameter alchLambda to 0.29999999999999966
Info: NONBONDED TABLE R-SQUARED SPACING: 0.0625
Info: NONBONDED TABLE SIZE: 705 POINTS
TCL: Setting parameter alchLambda2 to 0.24999999999999967
Info: NONBONDED TABLE R-SQUARED SPACING: 0.0625
Info: NONBONDED TABLE SIZE: 705 POINTS
TCL: Running for 1500000 steps
ETITLE: TS BOND ANGLE DIHED IMPRP ELECT VDW BOUNDARY MISC KINETIC TOTAL TEMP POTENTIAL TOTALAVG TEMPAVG PRESSURE GPRESSURE VOLUME PRESSAVG GPRESSAVG
ENERGY: 0 1.8882 13.5116 7.7842 0.0000 -10612.1133 1430.6254 0.0000 0.0000 1742.0979 -7416.2060 297.7797 -9158.3039 -7416.2060 297.7797 -129.8865 -57.2833 30283.6521 -129.8865 -57.2833
ENERGY: 300000 2.8654 12.5205 7.0872 0.0000 -10566.8358 1434.6257 0.0000 0.0000 1786.6457 -7323.0913 305.3944 -9109.7370 -7389.7895 302.5923 174.4942 242.6766 30102.0273 -168.3325 -121.0005
ENERGY: 600000 5.1780 11.7253 7.4933 0.0000 -10670.1056 1504.0209 0.0000 0.0000 1770.6300 -7371.0581 302.6568 -9141.6881 -7393.8868 301.1557 578.8666 634.7906 30198.4079 -115.8437 -47.1524
ENERGY: 900000 3.2738 7.4732 8.1660 0.0000 -10520.5746 1377.7662 0.0000 0.0000 1740.7814 -7383.1141 297.5547 -9123.8954 -7406.5339 299.8845 -260.7765 -223.6449 30266.4767 -169.4725 -110.4182
ENERGY: 1200000 1.6379 13.2166 7.4548 0.0000 -10762.4970 1505.0802 0.0000 0.0000 1741.1199 -7493.9877 297.6126 -9235.1076 -7419.5922 299.7507 576.5447 616.3903 29824.9694 -95.0717 -32.6733
ENERGY: 1500000 2.4447 9.9933 9.3617 0.0000 -10571.9914 1405.6934 0.0000 0.0000 1756.0620 -7388.4364 300.1666 -9144.4983 -7425.6627 298.9160 139.9489 180.0070 29814.6605 -118.4258 -55.3266
TCL: Running FEP window  16: Lambda1 0.24999999999999967 Lambda2 0.19999999999999968 [dLambda -0.04999999999999999]
TCL: Setting parameter firsttimestep to 0
TCL: Setting parameter alchLambda to 0.24999999999999967
Info: NONBONDED TABLE R-SQUARED SPACING: 0.0625
Info: NONBONDED TABLE SIZE: 705 POINTS
TCL: Setting parameter alchLambda2 to 0.19999999999999968
Info: NONBONDED TABLE R-SQUARED SPACING: 0.0625
Info: NONBONDED TABLE SIZE: 705 POINTS
TCL: Running for 1500000 steps
ETITLE: TS BOND ANGLE DIHED IMPRP ELECT VDW BOUNDARY MISC KINETIC TOTAL TEMP POTENTIAL TOTALAVG TEMPAVG PRESSURE GPRESSURE VOLUME PRESSAVG GPRESSAVG
ENERGY: 0 2.4447 9.9933 9.3617 0.0000 -10571.9904 1405.6078 0.0000 0.0000 1755.2260 -7389.3568 300.0237 -9144.5828 -7389.3568 300.0237 111.1370 174.3509 29814.6605 111.1370 174.3509
ENERGY: 300000 3.0788 10.7995 9.9721 0.0000 -10609.9037 1459.8276 0.0000 0.0000 1765.7240 -7360.5017 301.8182 -9126.2257 -7413.4706 299.0308 156.8042 297.5776 30307.5953 -301.5941 -223.4934
ENERGY: 600000 3.7120 11.3392 9.5600 0.0000 -10547.7866 1399.8926 0.0000 0.0000 1732.1305 -7391.1524 296.0760 -9123.2829 -7418.9453 298.0107 -272.1396 -178.4070 30573.3017 -355.5433 -283.3110
ENERGY: 900000 2.8002 8.6653 10.6255 0.0000 -10532.5843 1353.1150 0.0000 0.0000 1732.1945 -7425.1838 296.0869 -9157.3783 -7442.0306 296.5694 -742.3208 -686.4191 30278.9452 -359.8020 -285.4550
ENERGY: 1200000 4.1377 10.7268 7.0894 0.0000 -10623.5600 1425.5679 0.0000 0.0000 1777.9850 -7398.0534 303.9140 -9176.0384 -7435.7793 297.3604 34.4457 68.2765 29851.6267 -273.3477 -202.8590
ENERGY: 1500000 4.1063 11.1724 6.9364 0.0000 -10691.3242 1499.1601 0.0000 0.0000 1670.2735 -7499.6755 285.5027 -9169.9489 -7440.3401 297.0783 570.7509 651.8141 30000.1037 -186.5534 -117.9440
TCL: Running FEP window  17: Lambda1 0.19999999999999968 Lambda2 0.1499999999999997 [dLambda -0.04999999999999999]
TCL: Setting parameter firsttimestep to 0
TCL: Setting parameter alchLambda to 0.19999999999999968
Info: NONBONDED TABLE R-SQUARED SPACING: 0.0625
Info: NONBONDED TABLE SIZE: 705 POINTS
TCL: Setting parameter alchLambda2 to 0.1499999999999997
Info: NONBONDED TABLE R-SQUARED SPACING: 0.0625
Info: NONBONDED TABLE SIZE: 705 POINTS
TCL: Running for 1500000 steps
ETITLE: TS BOND ANGLE DIHED IMPRP ELECT VDW BOUNDARY MISC KINETIC TOTAL TEMP POTENTIAL TOTALAVG TEMPAVG PRESSURE GPRESSURE VOLUME PRESSAVG GPRESSAVG
ENERGY: 0 4.1063 11.1724 6.9364 0.0000 -10691.3253 1499.1568 0.0000 0.0000 1669.4190 -7500.5343 285.3566 -9169.9533 -7500.5343 285.3566 563.2796 646.5673 30000.1037 563.2796 646.5673
ENERGY: 300000 1.9365 15.0394 10.2068 0.0000 -10732.7373 1480.8278 0.0000 0.0000 1817.7281 -7406.9988 310.7073 -9224.7269 -7425.0371 299.6478 318.2409 410.8655 30008.6543 353.6582 440.8805
ENERGY: 600000 2.5262 10.3777 7.8103 0.0000 -10622.4523 1393.8197 0.0000 0.0000 1770.6916 -7437.2269 302.6673 -9207.9185 -7440.5015 299.6205 -293.7696 -252.5809 29991.3207 150.3169 223.5972
ENERGY: 900000 3.0161 9.7723 7.3252 0.0000 -10577.6343 1426.6694 0.0000 0.0000 1747.4718 -7383.3796 298.6983 -9130.8514 -7430.3002 300.2558 232.5302 278.1564 30152.0906 199.8616 265.0567
ENERGY: 1200000 4.0395 13.4379 10.5042 0.0000 -10677.1799 1455.0422 0.0000 0.0000 1700.0382 -7494.1179 290.5904 -9194.1561 -7434.9888 297.9920 -24.1594 70.1160 30188.2375 172.0897 236.2728
ENERGY: 1500000 2.4483 18.4106 9.3376 0.0000 -10541.3653 1349.6250 0.0000 0.0000 1771.3475 -7390.1963 302.7794 -9161.5438 -7431.1501 298.1906 -758.2098 -692.5835 30324.7065 32.9872 95.0821
TCL: Running FEP window  18: Lambda1 0.1499999999999997 Lambda2 0.09999999999999969 [dLambda -0.05 ]
TCL: Setting parameter firsttimestep to 0
TCL: Setting parameter alchLambda to 0.1499999999999997
Info: NONBONDED TABLE R-SQUARED SPACING: 0.0625
Info: NONBONDED TABLE SIZE: 705 POINTS
TCL: Setting parameter alchLambda2 to 0.09999999999999969
Info: NONBONDED TABLE R-SQUARED SPACING: 0.0625
Info: NONBONDED TABLE SIZE: 705 POINTS
TCL: Running for 1500000 steps
ETITLE: TS BOND ANGLE DIHED IMPRP ELECT VDW BOUNDARY MISC KINETIC TOTAL TEMP POTENTIAL TOTALAVG TEMPAVG PRESSURE GPRESSURE VOLUME PRESSAVG GPRESSAVG
ENERGY: 0 2.4483 18.4106 9.3376 0.0000 -10541.3659 1350.2840 0.0000 0.0000 1770.4877 -7390.3977 302.6324 -9160.8853 -7390.3977 302.6324 -762.2142 -693.4154 30324.7065 -762.2142 -693.4154
ENERGY: 300000 1.6986 9.9046 8.8613 0.0000 -10810.1025 1482.2738 0.0000 0.0000 1728.7026 -7578.6616 295.4901 -9307.3642 -7475.4058 296.3549 12.8332 51.3978 29948.9493 -182.3959 -124.0875
ENERGY: 600000 2.0659 11.5963 6.8550 0.0000 -10779.7173 1545.7408 0.0000 0.0000 1809.0361 -7404.4231 309.2216 -9213.4592 -7444.4013 298.6601 810.8424 870.9275 29827.7197 -8.8090 55.5827
ENERGY: 900000 1.4299 12.4109 8.1643 0.0000 -10741.4858 1504.7851 0.0000 0.0000 1740.6072 -7474.0884 297.5249 -9214.6956 -7446.2399 298.8413 712.5052 766.9269 29603.9985 100.1983 172.2750
ENERGY: 1200000 1.9988 10.6194 7.6789 0.0000 -10725.7151 1473.7393 0.0000 0.0000 1732.7419 -7498.9369 296.1805 -9231.6787 -7452.4735 298.9724 156.3131 203.2858 30049.6150 85.3646 151.1000
ENERGY: 1500000 1.2798 11.3033 7.3271 0.0000 -10526.3653 1297.6789 0.0000 0.0000 1811.8763 -7396.8999 309.7071 -9208.7762 -7449.2771 299.1371 -962.4716 -926.6954 30056.9350 36.9284 101.3470
TCL: Running FEP window  19: Lambda1 0.09999999999999969 Lambda2 0.049999999999999684 [dLambda -0.05 ]
TCL: Setting parameter firsttimestep to 0
TCL: Setting parameter alchLambda to 0.09999999999999969
Info: NONBONDED TABLE R-SQUARED SPACING: 0.0625
Info: NONBONDED TABLE SIZE: 705 POINTS
TCL: Setting parameter alchLambda2 to 0.049999999999999684
Info: NONBONDED TABLE R-SQUARED SPACING: 0.0625
Info: NONBONDED TABLE SIZE: 705 POINTS
TCL: Running for 1500000 steps
ETITLE: TS BOND ANGLE DIHED IMPRP ELECT VDW BOUNDARY MISC KINETIC TOTAL TEMP POTENTIAL TOTALAVG TEMPAVG PRESSURE GPRESSURE VOLUME PRESSAVG GPRESSAVG
ENERGY: 0 1.2798 11.3033 7.3271 0.0000 -10526.3647 1297.6784 0.0000 0.0000 1811.0019 -7397.7742 309.5576 -9208.7761 -7397.7742 309.5576 -1003.3728 -929.0575 30056.9350 -1003.3728 -929.0575
ENERGY: 300000 2.2778 10.9207 7.3830 0.0000 -10408.7669 1372.0011 0.0000 0.0000 1691.8043 -7324.3800 289.1830 -9016.1842 -7348.3712 302.2241 -373.6776 -345.4602 30480.3176 -738.5682 -673.0579
ENERGY: 600000 2.7645 15.8421 8.4885 0.0000 -10616.7375 1420.0401 0.0000 0.0000 1718.8303 -7450.7721 293.8026 -9169.6024 -7378.1552 300.1637 -35.6193 -21.8405 29887.5156 -239.0015 -193.3446
ENERGY: 900000 4.1917 10.9334 7.3648 0.0000 -10462.7670 1314.4584 0.0000 0.0000 1782.8538 -7342.9650 304.7462 -9125.8188 -7379.4760 301.4402 -822.6932 -768.8064 30005.4145 -239.0323 -185.2523
ENERGY: 1200000 3.2029 10.4947 10.2003 0.0000 -10643.2652 1419.8784 0.0000 0.0000 1768.0743 -7431.4145 302.2199 -9199.4888 -7392.0161 300.9374 -208.9559 -166.9350 30328.3352 -337.7160 -285.7837
ENERGY: 1500000 5.0495 9.6574 9.0574 0.0000 -10638.2376 1430.8965 0.0000 0.0000 1678.0751 -7505.5017 286.8362 -9183.5768 -7396.2588 300.4021 288.4499 285.7658 29484.1299 -245.2185 -194.9278
TCL: Running FEP window  20: Lambda1 0.049999999999999684 Lambda2 0.0    [dLambda -0.049999999999999684]
TCL: Setting parameter firsttimestep to 0
TCL: Setting parameter alchLambda to 0.049999999999999684
Info: NONBONDED TABLE R-SQUARED SPACING: 0.0625
Info: NONBONDED TABLE SIZE: 705 POINTS
TCL: Setting parameter alchLambda2 to 0.0
Info: NONBONDED TABLE R-SQUARED SPACING: 0.0625
Info: NONBONDED TABLE SIZE: 705 POINTS
TCL: Running for 1500000 steps
ETITLE: TS BOND ANGLE DIHED IMPRP ELECT VDW BOUNDARY MISC KINETIC TOTAL TEMP POTENTIAL TOTALAVG TEMPAVG PRESSURE GPRESSURE VOLUME PRESSAVG GPRESSAVG
ENERGY: 0 5.0496 9.6574 9.0574 0.0000 -10638.2394 1430.4709 0.0000 0.0000 1677.1932 -7506.8109 286.6855 -9184.0042 -7506.8109 286.6855 199.5537 280.4278 29484.1299 199.5537 280.4278
ENERGY: 300000 2.7041 13.7351 8.3725 0.0000 -10695.7533 1470.9967 0.0000 0.0000 1715.3060 -7484.6389 293.2002 -9199.9449 -7470.1289 297.2749 292.4759 401.6592 29731.6807 151.6793 255.0813
ENERGY: 600000 4.0661 8.7903 10.1047 0.0000 -10705.7160 1457.1210 0.0000 0.0000 1714.9122 -7510.7216 293.1328 -9225.6338 -7477.1668 297.5307 143.3094 233.5993 29458.3869 121.4718 210.4974
ENERGY: 900000 5.0204 12.4852 6.9101 0.0000 -10658.8849 1469.2946 0.0000 0.0000 1757.7277 -7407.4469 300.4514 -9165.1746 -7456.9459 298.7815 340.6330 405.5885 30312.7410 184.4525 261.1019
ENERGY: 1200000 3.0761 11.9246 8.6715 0.0000 -10758.5677 1515.1651 0.0000 0.0000 1748.9852 -7470.7452 298.9570 -9219.7305 -7455.0851 299.6130 769.6995 812.6349 29728.4766 148.3942 223.1064
ENERGY: 1500000 1.8784 8.3930 8.3021 0.0000 -10565.2004 1381.4879 0.0000 0.0000 1781.5323 -7383.6067 304.5203 -9165.1391 -7446.5137 299.2991 -282.4336 -203.7153 30114.6743 106.0477 175.3232
TCL: Exiting due to exit command.
