Info: SIMULATION PARAMETERS:
Info: TIMESTEP               2
Info: NUMBER OF STEPS        0
Info: STEPS PER CYCLE        10
Info: PERIODIC CELL BASIS 1  30.2351 0 0
Info: PERIODIC CELL BASIS 2  0 32.4934 0
Info: PERIODIC CELL BASIS 3  0 0 30.6532
Info: PERIODIC CELL CENTER   0 0 0
Info: WRAPPING WATERS AROUND PERIODIC BOUNDARIES ON OUTPUT.
Info: WRAPPING ALL CLUSTERS AROUND PERIODIC BOUNDARIES ON OUTPUT.
Info: FIRST LDB TIMESTEP     50
Info: LAST LDB TIMESTEP     -1
Info: HOM BACKGROUND SCALING 1
Info: PME BACKGROUND SCALING 1
Info: MIN ATOMS PER PATCH    40
Info: EMPTY PATCH LOAD       40 ATOMS
Info: VELOCITY FILE          mobley_3686115_equil.vel
Info: CENTER OF MASS MOVING INITIALLY? NO
Info: DIELECTRIC             1
Info: EXCLUDE                SCALED ONE-FOUR
Info: 1-4 ELECTROSTATICS SCALED BY 0.833333
Info: MODIFIED 1-4 VDW PARAMETERS WILL BE USED
Info: DCD FILENAME           mobley_3686115_prod.dcd
Info: DCD FREQUENCY          100000
Info: DCD FIRST STEP         100000
Info: DCD FILE WILL CONTAIN UNIT CELL DATA
Info: XST FILENAME           mobley_3686115_prod.xst
Info: XST FREQUENCY          100000
Info: NO VELOCITY DCD OUTPUT
Info: NO FORCE DCD OUTPUT
Info: OUTPUT FILENAME        mobley_3686115_prod
Info: BINARY OUTPUT FILES WILL BE USED
Info: RESTART FILENAME       mobley_3686115_prod.restart
Info: RESTART FREQUENCY      100000
Info: BINARY RESTART FILES WILL BE USED
Info: CUTOFF                 9
Info: PAIRLIST DISTANCE      11
Info: PAIRLIST SHRINK RATE   0.01
Info: PAIRLIST GROW RATE     0.01
Info: PAIRLIST TRIGGER       0.3
Info: PAIRLISTS PER CYCLE    2
Info: PAIRLISTS ENABLED
Info: MARGIN                 2
Info: HYDROGEN GROUP CUTOFF  2.5
Info: PATCH DIMENSION        15.5
Info: ENERGY OUTPUT STEPS    100000
Info: ENERGY EVALUATION STEPS    100000
Info: OUTPUT ENERGY PRECISION 4
Info: CROSSTERM ENERGY INCLUDED IN DIHEDRAL
Info: TIMING OUTPUT STEPS    1000000
Info: PRESSURE OUTPUT STEPS  100000
Info: ALCHEMICAL FEP ON
Info: FEP CURRENT LAMBDA VALUE     0
Info: FEP COMPARISON LAMBDA VALUE  0.05
Info: FEP INTRA-ALCHEMICAL NON-BONDED INTERACTIONS WILL BE RETAINED
Info: FEP INTRA-ALCHEMICAL BONDED INTERACTIONS WILL BE RETAINED
Info: FEP VDW SHIFTING COEFFICIENT 5
Info: FEP ELEC. ACTIVE FOR ANNIHILATED PARTICLES BETWEEN LAMBDA = 0 AND LAMBDA = 0.5
Info: FEP ELEC. ACTIVE FOR EXNIHILATED PARTICLES BETWEEN LAMBDA = 0.5 AND LAMBDA = 1
Info: FEP VDW ACTIVE FOR ANNIHILATED PARTICLES BETWEEN LAMBDA = 0 AND LAMBDA = 1
Info: FEP VDW ACTIVE FOR EXNIHILATED PARTICLES BETWEEN LAMBDA = 0 AND LAMBDA = 1
Info: FEP BOND ACTIVE FOR ANNIHILATED PARTICLES BETWEEN LAMBDA = 1 AND LAMBDA = 1
Info: FEP BOND ACTIVE FOR EXNIHILATED PARTICLES BETWEEN LAMBDA = 0 AND LAMBDA = 0
Info: LANGEVIN DYNAMICS ACTIVE
Info: LANGEVIN TEMPERATURE   300
Info: LANGEVIN USING BBK INTEGRATOR
Info: LANGEVIN DAMPING COEFFICIENT IS 1 INVERSE PS
Info: LANGEVIN DYNAMICS APPLIED TO HYDROGENS
Info: LANGEVIN PISTON PRESSURE CONTROL ACTIVE
Info:        TARGET PRESSURE IS 1.01325 BAR
Info:     OSCILLATION PERIOD IS 50 FS
Info:             DECAY TIME IS 25 FS
Info:     PISTON TEMPERATURE IS 300 K
Info:       PRESSURE CONTROL IS GROUP-BASED
Info:    INITIAL STRAIN RATE IS -0.000531577 -0.000531577 -0.000531577
Info:       CELL FLUCTUATION IS ISOTROPIC
Info: PARTICLE MESH EWALD (PME) ACTIVE
Info: PME TOLERANCE               1e-06
Info: PME EWALD COEFFICIENT       0.348832
Info: PME INTERPOLATION ORDER     4
Info: PME GRID DIMENSIONS         32 36 32
Info: PME MAXIMUM GRID SPACING    1
Info: PME CALCULATION WILL BE PERFORMED ON GPU
Info: FULL ELECTROSTATIC EVALUATION FREQUENCY      2
Info: USING VERLET I (r-RESPA) MTS SCHEME.
Info: C1 SPLITTING OF LONG RANGE ELECTROSTATICS
Info: PLACING ATOMS IN PATCHES BY HYDROGEN GROUPS
Info: RIGID BONDS TO HYDROGEN : ALL
Info:         ERROR TOLERANCE : 1e-08
Info:          MAX ITERATIONS : 100
Info: RIGID WATER USING SETTLE ALGORITHM
Info: RANDOM NUMBER SEED     1743977296
Info: USE HYDROGEN BONDS?    NO
Info: Using AMBER format force field!
Info: AMBER PARM FILE        mobley_3686115.prmtop
Info: COORDINATE PDB         mobley_3686115.pdb
Info: Exclusions will be read from PARM file!
Info: SCNB (VDW SCALING)     2
Info: USING ARITHMETIC MEAN TO COMBINE L-J SIGMA PARAMETERS
Info: BINARY COORDINATES     mobley_3686115_equil.coor
Info: SUMMARY OF PARAMETERS:
Info: 7 BONDS
Info: 10 ANGLES
Info:   10 HARMONIC
Info:   0 COSINE-BASED
Info: 9 DIHEDRAL
Info: 0 IMPROPER
Info: 0 CROSSTERM
Info: 0 VDW
Info: 28 VDW_PAIRS
Info: 0 NBTHOLE_PAIRS
Info: To read alchdata from file: mobley_3686115.pdb
Info: To read alchflag data from column: 5
Info: STRUCTURE SUMMARY:
Info: 2908 ATOMS
Info: 2907 BONDS
Info: 38 ANGLES
Info: 59 DIHEDRALS
Info: 0 IMPROPERS
Info: 0 CROSSTERMS
Info: 2984 EXCLUSIONS
Info: 2900 RIGID BONDS
Info: ALCH: 0 ATOMS TO DISAPPEAR IN FINAL STATE
Info: ALCH: 22 ATOMS TO APPEAR IN FINAL STATE
Info: 5824 DEGREES OF FREEDOM
Info: 970 HYDROGEN GROUPS
Info: 4 ATOMS IN LARGEST HYDROGEN GROUP
Info: 970 MIGRATION GROUPS
Info: 4 ATOMS IN LARGEST MIGRATION GROUP
Info: TOTAL MASS = 17449.6 amu
Info: TOTAL CHARGE = 0 e
Info: MASS DENSITY = 0.962192 g/cm^3
Info: ATOM DENSITY = 0.0965633 atoms/A^3
Info: ADDED 0 IMPLICIT EXCLUSIONS
Info: NONBONDED TABLE R-SQUARED SPACING: 0.0625
Info: NONBONDED TABLE SIZE: 705 POINTS
Info: REMOVING COM VELOCITY 0.00241775 0.0563923 -0.26986
Info: Use 3D box decompostion in PME FFT.
Info: Updated CUDA force table with 4096 elements.
Info: Updated CUDA LJ table with 7 x 7 elements.
Info: Found 25 unique exclusion lists needing 72 bytes
TCL: Running for 1500000 steps
ETITLE: TS BOND ANGLE DIHED IMPRP ELECT VDW BOUNDARY MISC KINETIC TOTAL TEMP POTENTIAL TOTALAVG TEMPAVG PRESSURE GPRESSURE VOLUME PRESSAVG GPRESSAVG
ENERGY: 0 2.7030 7.5083 9.9693 0.0000 -10536.5088 1440.5253 0.0000 0.0000 1758.9793 -7316.8235 303.9693 -9075.8028 -7316.8235 303.9693 116.6343 201.8372 30114.9595 116.6343 201.8372
ENERGY: 300000 4.0326 10.6702 9.7018 0.0000 -10351.4389 1309.6670 0.0000 0.0000 1722.9130 -7294.4542 297.7367 -9017.3672 -7358.1341 295.9975 -711.6186 -699.0696 29794.3893 -222.6786 -190.9702
ENERGY: 600000 2.7515 12.2498 8.6625 0.0000 -10502.7619 1337.3700 0.0000 0.0000 1708.7006 -7433.0274 295.2807 -9141.7280 -7374.4156 296.5582 -776.2060 -713.3638 29695.2048 -345.3952 -313.7527
ENERGY: 900000 0.1146 13.6118 11.2396 0.0000 -10572.6082 1456.6409 0.0000 0.0000 1740.8636 -7350.1377 300.8387 -9091.0012 -7367.5639 298.2905 421.2504 475.5034 29469.6708 -128.9910 -94.5455
ENERGY: 1200000 2.4732 10.8212 12.0632 0.0000 -10558.6947 1446.1406 0.0000 0.0000 1701.8447 -7385.3518 294.0959 -9087.1966 -7368.6616 298.6165 71.7412 181.2021 29773.3168 -116.2066 -69.0841
ENERGY: 1500000 2.5936 8.9810 7.5262 0.0000 -10692.9171 1472.6428 0.0000 0.0000 1712.5554 -7488.6180 295.9468 -9201.1734 -7368.4801 298.8184 196.4391 202.6845 29512.0672 -79.5899 -30.2120
TCL: Running FEP window   2: Lambda1 0.05   Lambda2 0.1    [dLambda 0.05  ]
TCL: Setting parameter firsttimestep to 0
TCL: Setting parameter alchLambda to 0.05
Info: NONBONDED TABLE R-SQUARED SPACING: 0.0625
Info: NONBONDED TABLE SIZE: 705 POINTS
TCL: Setting parameter alchLambda2 to 0.1
Info: NONBONDED TABLE R-SQUARED SPACING: 0.0625
Info: NONBONDED TABLE SIZE: 705 POINTS
TCL: Running for 1500000 steps
ETITLE: TS BOND ANGLE DIHED IMPRP ELECT VDW BOUNDARY MISC KINETIC TOTAL TEMP POTENTIAL TOTALAVG TEMPAVG PRESSURE GPRESSURE VOLUME PRESSAVG GPRESSAVG
ENERGY: 0 2.5936 8.9810 7.5262 0.0000 -10692.9183 1474.3353 0.0000 0.0000 1711.6816 -7487.8005 295.7958 -9199.4821 -7487.8005 295.7958 111.5125 210.8413 29512.0672 111.5125 210.8413
ENERGY: 300000 1.0163 17.1155 8.4666 0.0000 -10400.8638 1342.6222 0.0000 0.0000 1682.3248 -7349.3183 290.7227 -9031.6431 -7403.4092 298.7753 -464.6289 -383.1986 29658.7977 384.8411 480.7397
ENERGY: 600000 3.5420 11.3157 11.2014 0.0000 -10427.2468 1335.9060 0.0000 0.0000 1774.9300 -7290.3516 306.7258 -9065.2816 -7387.2892 299.5424 -772.2931 -615.6016 29851.3466 9.5733 96.8867
ENERGY: 900000 1.4594 10.6601 8.2049 0.0000 -10503.2858 1428.4253 0.0000 0.0000 1730.7806 -7323.7556 299.0963 -9054.5362 -7377.0877 298.8952 291.7173 392.5444 29475.0174 -24.6012 66.4587
ENERGY: 1200000 0.7864 6.8041 11.9332 0.0000 -10536.5108 1418.6555 0.0000 0.0000 1695.5601 -7402.7715 293.0098 -9098.3316 -7376.7457 298.4856 -133.1485 -32.2627 29820.7508 -30.4116 52.0674
ENERGY: 1500000 2.1844 6.1824 10.8963 0.0000 -10624.2510 1410.4591 0.0000 0.0000 1704.0069 -7490.5219 294.4695 -9194.5288 -7382.2687 299.0743 -274.7129 -193.9271 29456.1321 47.0527 135.1464
TCL: Running FEP window   3: Lambda1 0.1    Lambda2 0.15000000000000002 [dLambda 0.05000000000000002]
TCL: Setting parameter firsttimestep to 0
TCL: Setting parameter alchLambda to 0.1
Info: NONBONDED TABLE R-SQUARED SPACING: 0.0625
Info: NONBONDED TABLE SIZE: 705 POINTS
TCL: Setting parameter alchLambda2 to 0.15000000000000002
Info: NONBONDED TABLE R-SQUARED SPACING: 0.0625
Info: NONBONDED TABLE SIZE: 705 POINTS
TCL: Running for 1500000 steps
ETITLE: TS BOND ANGLE DIHED IMPRP ELECT VDW BOUNDARY MISC KINETIC TOTAL TEMP POTENTIAL TOTALAVG TEMPAVG PRESSURE GPRESSURE VOLUME PRESSAVG GPRESSAVG
ENERGY: 0 2.1844 6.1824 10.8963 0.0000 -10624.2510 1410.7145 0.0000 0.0000 1703.1577 -7491.1157 294.3228 -9194.2735 -7491.1157 294.3228 -283.9977 -188.7025 29456.1321 -283.9977 -188.7025
ENERGY: 300000 1.5516 15.8590 7.7155 0.0000 -10471.8651 1342.3671 0.0000 0.0000 1737.5626 -7366.8092 300.2683 -9104.3718 -7405.7450 297.7121 -602.9040 -571.5478 29672.9295 -326.1179 -291.4107
ENERGY: 600000 2.5745 14.6678 10.4711 0.0000 -10647.5186 1544.0962 0.0000 0.0000 1664.0680 -7411.6410 287.5677 -9075.7090 -7387.3974 297.9118 975.2809 1014.6488 29870.3113 23.0388 80.4651
ENERGY: 900000 3.8962 7.4515 7.0271 0.0000 -10505.2255 1366.3231 0.0000 0.0000 1777.9085 -7342.6190 307.2405 -9120.5275 -7379.7964 298.7903 -374.0111 -320.8809 29572.9412 -102.8309 -43.0837
ENERGY: 1200000 1.4100 13.2137 8.7025 0.0000 -10551.5814 1448.2684 0.0000 0.0000 1756.6032 -7323.3835 303.5587 -9079.9867 -7384.9873 298.4710 172.6693 252.4609 29747.1334 -40.1055 19.7517
ENERGY: 1500000 7.5567 6.5848 8.6408 0.0000 -10487.5914 1381.9413 0.0000 0.0000 1767.6189 -7315.2490 305.4623 -9082.8679 -7386.5046 298.2128 -43.6062 -18.6839 29474.3586 -107.2219 -48.8817
TCL: Running FEP window   4: Lambda1 0.15000000000000002 Lambda2 0.2    [dLambda 0.04999999999999999]
TCL: Setting parameter firsttimestep to 0
TCL: Setting parameter alchLambda to 0.15000000000000002
Info: NONBONDED TABLE R-SQUARED SPACING: 0.0625
Info: NONBONDED TABLE SIZE: 705 POINTS
TCL: Setting parameter alchLambda2 to 0.2
Info: NONBONDED TABLE R-SQUARED SPACING: 0.0625
Info: NONBONDED TABLE SIZE: 705 POINTS
TCL: Running for 1500000 steps
ETITLE: TS BOND ANGLE DIHED IMPRP ELECT VDW BOUNDARY MISC KINETIC TOTAL TEMP POTENTIAL TOTALAVG TEMPAVG PRESSURE GPRESSURE VOLUME PRESSAVG GPRESSAVG
ENERGY: 0 7.5566 6.5848 8.6408 0.0000 -10487.5901 1382.5614 0.0000 0.0000 1766.7560 -7315.4905 305.3132 -9082.2465 -7315.4905 305.3132 -106.8677 -14.3900 29474.3586 -106.8677 -14.3900
ENERGY: 300000 0.9877 9.1478 7.7768 0.0000 -10622.3518 1499.1727 0.0000 0.0000 1720.9852 -7384.2816 297.4036 -9105.2668 -7334.0894 302.8399 696.1463 771.3759 29507.5777 101.6385 178.7347
ENERGY: 600000 1.0745 9.9884 11.5953 0.0000 -10496.6182 1365.6920 0.0000 0.0000 1703.7511 -7404.5168 294.4253 -9108.2679 -7352.5247 301.0717 -230.5580 -206.4568 29479.1651 -182.4019 -120.4896
ENERGY: 900000 3.7077 11.1315 11.0292 0.0000 -10532.8351 1420.5242 0.0000 0.0000 1712.8545 -7373.5880 295.9985 -9086.4425 -7353.2567 301.4097 -112.8308 -59.7213 30143.1916 -75.5450 -6.0180
ENERGY: 1200000 0.3267 10.1576 7.9379 0.0000 -10596.2029 1430.7251 0.0000 0.0000 1702.0115 -7445.0441 294.1247 -9147.0556 -7362.1509 301.7878 54.9524 113.1194 29414.9198 -7.2071 51.0604
ENERGY: 1500000 1.7472 8.0763 10.1852 0.0000 -10464.7298 1340.2514 0.0000 0.0000 1670.8012 -7433.6685 288.7312 -9104.4696 -7365.4558 300.4211 -441.9915 -403.3394 29561.7843 -22.4548 34.3235
TCL: Running FEP window   5: Lambda1 0.2    Lambda2 0.25   [dLambda 0.04999999999999999]
TCL: Setting parameter firsttimestep to 0
TCL: Setting parameter alchLambda to 0.2
Info: NONBONDED TABLE R-SQUARED SPACING: 0.0625
Info: NONBONDED TABLE SIZE: 705 POINTS
TCL: Setting parameter alchLambda2 to 0.25
Info: NONBONDED TABLE R-SQUARED SPACING: 0.0625
Info: NONBONDED TABLE SIZE: 705 POINTS
TCL: Running for 1500000 steps
ETITLE: TS BOND ANGLE DIHED IMPRP ELECT VDW BOUNDARY MISC KINETIC TOTAL TEMP POTENTIAL TOTALAVG TEMPAVG PRESSURE GPRESSURE VOLUME PRESSAVG GPRESSAVG
ENERGY: 0 1.7472 8.0763 10.1852 0.0000 -10464.7306 1341.4243 0.0000 0.0000 1669.9145 -7433.3830 288.5780 -9103.2975 -7433.3830 288.5780 -480.9595 -395.7569 29561.7843 -480.9595 -395.7569
ENERGY: 300000 2.3062 11.3634 9.1202 0.0000 -10490.7930 1394.7222 0.0000 0.0000 1763.5711 -7309.7099 304.7628 -9073.2810 -7305.6177 299.4307 -88.6169 -32.6090 29711.4025 -136.6048 -71.0587
ENERGY: 600000 1.2532 13.5154 8.8647 0.0000 -10687.2943 1477.7405 0.0000 0.0000 1738.7194 -7447.2011 300.4682 -9185.9206 -7331.8778 299.4159 371.3792 493.2237 29353.0434 -104.8903 -36.0179
ENERGY: 900000 2.0854 7.8164 10.4785 0.0000 -10521.3718 1355.3838 0.0000 0.0000 1744.5529 -7401.0549 301.4763 -9145.6078 -7332.2535 300.6425 -600.6253 -538.6529 29759.9412 -136.2467 -67.7793
ENERGY: 1200000 2.2920 8.2232 10.7330 0.0000 -10476.3541 1367.4088 0.0000 0.0000 1725.7962 -7361.9008 298.2349 -9087.6971 -7325.6179 301.4764 -234.0403 -198.2472 29703.6348 -149.8613 -88.3977
ENERGY: 1500000 2.7340 8.2087 7.9409 0.0000 -10526.4193 1420.2275 0.0000 0.0000 1753.3440 -7333.9643 302.9955 -9087.3082 -7328.2663 302.1865 -212.5423 -214.4952 30192.9905 -189.2684 -128.0791
TCL: Running FEP window   6: Lambda1 0.25   Lambda2 0.3    [dLambda 0.04999999999999999]
TCL: Setting parameter firsttimestep to 0
TCL: Setting parameter alchLambda to 0.25
Info: NONBONDED TABLE R-SQUARED SPACING: 0.0625
Info: NONBONDED TABLE SIZE: 705 POINTS
TCL: Setting parameter alchLambda2 to 0.3
Info: NONBONDED TABLE R-SQUARED SPACING: 0.0625
Info: NONBONDED TABLE SIZE: 705 POINTS
TCL: Running for 1500000 steps
ETITLE: TS BOND ANGLE DIHED IMPRP ELECT VDW BOUNDARY MISC KINETIC TOTAL TEMP POTENTIAL TOTALAVG TEMPAVG PRESSURE GPRESSURE VOLUME PRESSAVG GPRESSAVG
ENERGY: 0 2.7340 8.2087 7.9409 0.0000 -10526.4198 1420.2853 0.0000 0.0000 1752.4829 -7334.7681 302.8467 -9087.2510 -7334.7681 302.8467 -288.6404 -212.0659 30192.9905 -288.6404 -212.0659
ENERGY: 300000 1.1722 10.5490 7.4513 0.0000 -10495.4382 1349.9875 0.0000 0.0000 1733.1927 -7393.0855 299.5131 -9126.2781 -7348.7173 299.9093 -664.6393 -567.2817 29860.1543 -381.6928 -306.0697
ENERGY: 600000 2.3817 12.2568 8.4541 0.0000 -10428.3972 1375.5530 0.0000 0.0000 1793.6275 -7236.1242 309.9569 -9029.7517 -7324.5230 303.5789 -196.7974 -143.1588 30151.9882 -201.6186 -130.4665
ENERGY: 900000 1.5578 10.6426 7.0712 0.0000 -10408.9034 1370.9630 0.0000 0.0000 1759.3073 -7259.3615 304.0260 -9018.6688 -7325.8796 302.9646 -94.5421 -33.3289 29809.7012 -90.0384 -27.0845
ENERGY: 1200000 2.7350 10.4380 10.7820 0.0000 -10656.2509 1437.4882 0.0000 0.0000 1725.4836 -7469.3241 298.1809 -9194.8077 -7332.6080 302.8148 -279.4869 -195.6767 30153.3346 -81.3326 -13.5281
ENERGY: 1500000 3.7777 16.8347 8.0960 0.0000 -10524.2930 1354.8102 0.0000 0.0000 1768.0894 -7372.6850 305.5436 -9140.7744 -7340.9300 302.5680 -668.2298 -636.0780 29942.8921 -247.1052 -185.2348
TCL: Running FEP window   7: Lambda1 0.3    Lambda2 0.35   [dLambda 0.04999999999999999]
TCL: Setting parameter firsttimestep to 0
TCL: Setting parameter alchLambda to 0.3
Info: NONBONDED TABLE R-SQUARED SPACING: 0.0625
Info: NONBONDED TABLE SIZE: 705 POINTS
TCL: Setting parameter alchLambda2 to 0.35
Info: NONBONDED TABLE R-SQUARED SPACING: 0.0625
Info: NONBONDED TABLE SIZE: 705 POINTS
TCL: Running for 1500000 steps
ETITLE: TS BOND ANGLE DIHED IMPRP ELECT VDW BOUNDARY MISC KINETIC TOTAL TEMP POTENTIAL TOTALAVG TEMPAVG PRESSURE GPRESSURE VOLUME PRESSAVG GPRESSAVG
ENERGY: 0 3.7777 16.8347 8.0960 0.0000 -10524.2926 1354.4115 0.0000 0.0000 1767.2288 -7373.9439 305.3949 -9141.1727 -7373.9439 305.3949 -712.2817 -633.3798 29942.8921 -712.2817 -633.3798
ENERGY: 300000 0.4654 8.3939 11.7515 0.0000 -10492.8236 1373.7539 0.0000 0.0000 1735.2490 -7363.2098 299.8685 -9098.4588 -7321.6272 306.4142 -166.3793 -97.4696 29561.8609 -140.6168 -47.5677
ENERGY: 600000 1.5938 10.1238 10.0685 0.0000 -10556.2880 1348.0492 0.0000 0.0000 1771.3597 -7415.0930 306.1088 -9186.4527 -7327.5408 305.9181 -740.4990 -693.5629 29691.7483 -38.6622 44.0202
ENERGY: 900000 1.2382 10.1513 11.7776 0.0000 -10639.9704 1497.1850 0.0000 0.0000 1747.9690 -7371.6494 302.0666 -9119.6184 -7329.3844 304.9940 745.9416 766.2896 29676.8472 25.4190 100.2252
ENERGY: 1200000 3.3055 8.7408 9.7356 0.0000 -10508.5411 1398.4241 0.0000 0.0000 1748.1117 -7340.2234 302.0913 -9088.3351 -7335.1025 303.5890 -351.9915 -270.4002 30353.4793 -27.3726 37.7135
ENERGY: 1500000 1.7796 16.6839 9.9385 0.0000 -10452.9000 1379.9521 0.0000 0.0000 1759.6239 -7284.9219 304.0807 -9044.5458 -7330.3477 303.0415 -384.3563 -277.5196 30366.3946 -50.9074 11.8214
TCL: Running FEP window   8: Lambda1 0.35   Lambda2 0.39999999999999997 [dLambda 0.04999999999999999]
TCL: Setting parameter firsttimestep to 0
TCL: Setting parameter alchLambda to 0.35
Info: NONBONDED TABLE R-SQUARED SPACING: 0.0625
Info: NONBONDED TABLE SIZE: 705 POINTS
TCL: Setting parameter alchLambda2 to 0.39999999999999997
Info: NONBONDED TABLE R-SQUARED SPACING: 0.0625
Info: NONBONDED TABLE SIZE: 705 POINTS
TCL: Running for 1500000 steps
ETITLE: TS BOND ANGLE DIHED IMPRP ELECT VDW BOUNDARY MISC KINETIC TOTAL TEMP POTENTIAL TOTALAVG TEMPAVG PRESSURE GPRESSURE VOLUME PRESSAVG GPRESSAVG
ENERGY: 0 1.7796 16.6839 9.9385 0.0000 -10452.8990 1380.0100 0.0000 0.0000 1758.7399 -7285.7470 303.9280 -9044.4869 -7285.7470 303.9280 -358.6160 -270.0552 30366.3946 -358.6160 -270.0552
ENERGY: 300000 1.6406 10.3020 10.5563 0.0000 -10518.6320 1364.9120 0.0000 0.0000 1714.9541 -7416.2669 296.3613 -9131.2211 -7353.0850 298.7012 -512.5222 -396.8043 29697.2083 -325.2156 -250.4161
ENERGY: 600000 1.8309 12.4804 9.6330 0.0000 -10511.2212 1393.6653 0.0000 0.0000 1757.6895 -7335.9221 303.7464 -9093.6116 -7338.1412 301.5957 -150.6895 -105.7667 29513.7243 -344.4483 -279.6943
ENERGY: 900000 1.4351 5.8348 10.5159 0.0000 -10632.3601 1496.5484 0.0000 0.0000 1740.2644 -7377.7614 300.7352 -9118.0259 -7349.1547 301.7158 675.0204 775.3299 29528.6192 -132.9992 -68.4623
ENERGY: 1200000 2.1531 9.5098 9.4881 0.0000 -10585.2107 1448.1283 0.0000 0.0000 1695.0295 -7420.9018 292.9182 -9115.9313 -7352.1828 300.3233 266.3872 340.3289 29768.2255 -57.5637 5.6798
ENERGY: 1500000 1.9842 12.8348 10.4514 0.0000 -10534.3562 1426.0120 0.0000 0.0000 1799.5028 -7283.5710 310.9722 -9083.0739 -7345.1178 301.3864 143.1279 123.2675 30103.4114 -39.4226 16.3465
TCL: Running FEP window   9: Lambda1 0.39999999999999997 Lambda2 0.44999999999999996 [dLambda 0.04999999999999999]
TCL: Setting parameter firsttimestep to 0
TCL: Setting parameter alchLambda to 0.39999999999999997
Info: NONBONDED TABLE R-SQUARED SPACING: 0.0625
Info: NONBONDED TABLE SIZE: 705 POINTS
TCL: Setting parameter alchLambda2 to 0.44999999999999996
Info: NONBONDED TABLE R-SQUARED SPACING: 0.0625
Info: NONBONDED TABLE SIZE: 705 POINTS
TCL: Running for 1500000 steps
ETITLE: TS BOND ANGLE DIHED IMPRP ELECT VDW BOUNDARY MISC KINETIC TOTAL TEMP POTENTIAL TOTALAVG TEMPAVG PRESSURE GPRESSURE VOLUME PRESSAVG GPRESSAVG
ENERGY: 0 1.9842 12.8348 10.4514 0.0000 -10534.3555 1426.4143 0.0000 0.0000 1798.6236 -7284.0473 310.8202 -9082.6709 -7284.0473 310.8202 60.4073 130.8181 30103.4114 60.4073 130.8181
ENERGY: 300000 2.5896 7.6408 9.8942 0.0000 -10647.3907 1462.3043 0.0000 0.0000 1678.9010 -7486.0610 290.1310 -9164.9620 -7358.3979 300.9178 542.4391 578.7515 28984.0154 407.9623 453.7737
ENERGY: 600000 3.4041 4.8132 7.1191 0.0000 -10523.4620 1446.3710 0.0000 0.0000 1742.6924 -7319.0622 301.1548 -9061.7546 -7363.1139 299.0262 511.9004 576.1278 29621.2570 235.2755 305.7432
ENERGY: 900000 1.9903 10.1829 7.6051 0.0000 -10541.2346 1445.3070 0.0000 0.0000 1677.2020 -7398.9473 289.8374 -9076.1493 -7361.3517 298.6181 233.0279 367.5535 29794.7631 122.1742 197.5388
ENERGY: 1200000 0.6882 9.5945 8.9309 0.0000 -10464.4492 1472.0077 0.0000 0.0000 1720.5681 -7252.6599 297.3315 -8973.2280 -7343.9630 299.3403 795.9679 844.9364 29949.1861 148.9513 228.2371
ENERGY: 1500000 0.9177 13.8353 12.5802 0.0000 -10417.5541 1325.4471 0.0000 0.0000 1711.6914 -7353.0824 295.7975 -9064.7738 -7340.7901 300.2533 -607.6873 -561.6053 30038.7348 117.6861 185.3660
TCL: Running FEP window  10: Lambda1 0.44999999999999996 Lambda2 0.49999999999999994 [dLambda 0.04999999999999999]
TCL: Setting parameter firsttimestep to 0
TCL: Setting parameter alchLambda to 0.44999999999999996
Info: NONBONDED TABLE R-SQUARED SPACING: 0.0625
Info: NONBONDED TABLE SIZE: 705 POINTS
TCL: Setting parameter alchLambda2 to 0.49999999999999994
Info: NONBONDED TABLE R-SQUARED SPACING: 0.0625
Info: NONBONDED TABLE SIZE: 705 POINTS
TCL: Running for 1500000 steps
ETITLE: TS BOND ANGLE DIHED IMPRP ELECT VDW BOUNDARY MISC KINETIC TOTAL TEMP POTENTIAL TOTALAVG TEMPAVG PRESSURE GPRESSURE VOLUME PRESSAVG GPRESSAVG
ENERGY: 0 0.9177 13.8353 12.5802 0.0000 -10417.5527 1325.0943 0.0000 0.0000 1710.8352 -7354.2900 295.6495 -9065.1252 -7354.2900 295.6495 -651.8494 -557.3165 30038.7348 -651.8494 -557.3165
ENERGY: 300000 2.3722 11.1159 8.4129 0.0000 -10587.6680 1402.6607 0.0000 0.0000 1723.7591 -7439.3473 297.8829 -9163.1064 -7390.9493 298.7090 -461.4231 -411.8799 30021.6709 -122.9265 -51.7171
ENERGY: 600000 3.0527 8.3198 10.4130 0.0000 -10590.2658 1458.9067 0.0000 0.0000 1723.8786 -7385.6950 297.9036 -9109.5736 -7393.3279 297.6843 284.4548 404.4734 29574.7523 -47.0528 28.8641
ENERGY: 900000 3.7951 6.5026 8.0544 0.0000 -10510.2890 1389.9199 0.0000 0.0000 1777.6338 -7324.3831 307.1930 -9102.0169 -7400.1402 299.0849 -54.9108 7.5901 29591.5755 9.5021 79.5607
ENERGY: 1200000 0.7754 11.5759 7.9779 0.0000 -10644.7358 1454.3174 0.0000 0.0000 1755.5084 -7414.5808 303.3695 -9170.0892 -7401.4444 298.4269 304.5347 397.7357 29400.1758 -115.4863 -48.4190
ENERGY: 1500000 2.5151 9.3140 8.8365 0.0000 -10452.9553 1368.8540 0.0000 0.0000 1736.8569 -7326.5788 300.1463 -9063.4356 -7387.9045 298.0851 -29.6461 -16.1949 29569.3416 -124.4954 -57.4346
TCL: Running FEP window  11: Lambda1 0.49999999999999994 Lambda2 0.5499999999999999 [dLambda 0.04999999999999999]
TCL: Setting parameter firsttimestep to 0
TCL: Setting parameter alchLambda to 0.49999999999999994
Info: NONBONDED TABLE R-SQUARED SPACING: 0.0625
Info: NONBONDED TABLE SIZE: 705 POINTS
TCL: Setting parameter alchLambda2 to 0.5499999999999999
Info: NONBONDED TABLE R-SQUARED SPACING: 0.0625
Info: NONBONDED TABLE SIZE: 705 POINTS
TCL: Running for 1500000 steps
ETITLE: TS BOND ANGLE DIHED IMPRP ELECT VDW BOUNDARY MISC KINETIC TOTAL TEMP POTENTIAL TOTALAVG TEMPAVG PRESSURE GPRESSURE VOLUME PRESSAVG GPRESSAVG
ENERGY: 0 2.5151 9.3141 8.8365 0.0000 -10452.9550 1369.5916 0.0000 0.0000 1736.0098 -7326.6880 300.0000 -9062.6978 -7326.6880 300.0000 -94.0509 -2.3856 29569.3416 -94.0509 -2.3856
ENERGY: 300000 2.0551 16.7614 8.5130 0.0000 -10605.6122 1417.1644 0.0000 0.0000 1716.6483 -7444.4700 296.6541 -9161.1183 -7350.4339 299.5281 -126.5485 -117.4861 30080.8798 -150.0103 -97.2582
ENERGY: 600000 4.7374 8.6499 9.6800 0.0000 -10568.8572 1446.1129 0.0000 0.0000 1746.9915 -7352.6854 301.8977 -9099.6770 -7359.4045 299.0949 -127.6262 -74.1646 30046.4438 -221.0856 -172.8991
ENERGY: 900000 2.0588 13.6706 10.7555 0.0000 -10567.3661 1392.8378 0.0000 0.0000 1833.3862 -7314.6572 316.8276 -9148.0434 -7348.3631 301.6681 -264.0475 -223.8912 29847.7763 -215.1934 -157.6435
ENERGY: 1200000 0.9247 10.1013 10.3081 0.0000 -10439.7943 1343.7482 0.0000 0.0000 1734.1614 -7340.5505 299.6805 -9074.7119 -7351.4088 300.5367 -589.5837 -531.5836 30072.7426 -225.6459 -173.9084
ENERGY: 1500000 4.0331 13.5581 7.1835 0.0000 -10552.9166 1462.1302 0.0000 0.0000 1701.6636 -7364.3481 294.0646 -9066.0117 -7345.3812 299.8958 401.2034 494.6609 29572.9338 -215.1259 -160.6885
TCL: Running FEP window  12: Lambda1 0.5499999999999999 Lambda2 0.6    [dLambda 0.050000000000000044]
TCL: Setting parameter firsttimestep to 0
TCL: Setting parameter alchLambda to 0.5499999999999999
Info: NONBONDED TABLE R-SQUARED SPACING: 0.0625
Info: NONBONDED TABLE SIZE: 705 POINTS
TCL: Setting parameter alchLambda2 to 0.6
Info: NONBONDED TABLE R-SQUARED SPACING: 0.0625
Info: NONBONDED TABLE SIZE: 705 POINTS
TCL: Running for 1500000 steps
ETITLE: TS BOND ANGLE DIHED IMPRP ELECT VDW BOUNDARY MISC KINETIC TOTAL TEMP POTENTIAL TOTALAVG TEMPAVG PRESSURE GPRESSURE VOLUME PRESSAVG GPRESSAVG
ENERGY: 0 4.0331 13.5581 7.1835 0.0000 -10552.9107 1462.7129 0.0000 0.0000 1700.8178 -7364.6054 293.9184 -9065.4231 -7364.6054 293.9184 423.6569 512.2992 29572.9338 423.6569 512.2992
ENERGY: 300000 1.9737 11.9502 7.8888 0.0000 -10409.8787 1264.9867 0.0000 0.0000 1759.3033 -7363.7759 304.0253 -9123.0792 -7385.9302 300.0541 -1320.6561 -1246.4242 30070.0673 -641.9996 -555.2791
ENERGY: 600000 2.1252 9.1389 8.1399 0.0000 -10447.0189 1356.1676 0.0000 0.0000 1818.0030 -7253.4442 314.1692 -9071.4472 -7347.8105 302.2017 -370.7829 -296.6501 30075.7534 -543.0448 -463.3040
ENERGY: 900000 1.5998 7.2650 7.9839 0.0000 -10479.6074 1353.2324 0.0000 0.0000 1746.4519 -7363.0743 301.8045 -9109.5262 -7350.8829 301.1239 -680.6337 -516.1067 30093.2260 -448.6571 -361.2633
ENERGY: 1200000 2.3601 11.4435 7.8106 0.0000 -10615.2956 1438.0427 0.0000 0.0000 1744.8224 -7410.8162 301.5229 -9155.6387 -7356.9770 300.2373 45.2380 114.2560 29709.8653 -287.1586 -204.6544
ENERGY: 1500000 3.2575 11.8792 7.6264 0.0000 -10498.2838 1356.2809 0.0000 0.0000 1822.7972 -7296.4425 314.9977 -9119.2397 -7346.9536 301.6431 -652.3259 -610.6178 29880.3616 -335.5026 -256.3904
TCL: Running FEP window  13: Lambda1 0.6    Lambda2 0.65   [dLambda 0.050000000000000044]
TCL: Setting parameter firsttimestep to 0
TCL: Setting parameter alchLambda to 0.6
Info: NONBONDED TABLE R-SQUARED SPACING: 0.0625
Info: NONBONDED TABLE SIZE: 705 POINTS
TCL: Setting parameter alchLambda2 to 0.65
Info: NONBONDED TABLE R-SQUARED SPACING: 0.0625
Info: NONBONDED TABLE SIZE: 705 POINTS
TCL: Running for 1500000 steps
ETITLE: TS BOND ANGLE DIHED IMPRP ELECT VDW BOUNDARY MISC KINETIC TOTAL TEMP POTENTIAL TOTALAVG TEMPAVG PRESSURE GPRESSURE VOLUME PRESSAVG GPRESSAVG
ENERGY: 0 3.2575 11.8792 7.6264 0.0000 -10497.9922 1355.8054 0.0000 0.0000 1821.9129 -7297.5108 314.8449 -9119.4237 -7297.5108 314.8449 -700.1598 -609.5041 29880.3616 -700.1598 -609.5041
ENERGY: 300000 1.1263 10.0252 13.2160 0.0000 -10459.6643 1386.7012 0.0000 0.0000 1723.6357 -7324.9598 297.8616 -9048.5955 -7310.7960 305.3103 -303.1704 -214.5533 30174.3304 -70.6156 19.2359
ENERGY: 600000 1.1117 9.7428 8.7404 0.0000 -10452.8973 1387.0297 0.0000 0.0000 1755.2910 -7290.9816 303.3319 -9046.2727 -7315.4597 305.2873 -38.5692 52.6134 29993.5841 90.0627 173.5912
ENERGY: 900000 0.7515 11.3465 7.8025 0.0000 -10584.9789 1431.3949 0.0000 0.0000 1748.6965 -7384.9870 302.1923 -9133.6835 -7331.5860 304.8152 345.3945 370.3407 29522.0902 75.4150 146.4181
ENERGY: 1200000 3.1715 12.4935 9.0175 0.0000 -10588.0252 1468.4863 0.0000 0.0000 1813.0019 -7281.8546 313.3050 -9094.8565 -7335.8948 303.4425 611.7556 653.1416 29775.9931 91.5728 154.8574
ENERGY: 1500000 2.3248 13.0804 9.5241 0.0000 -10517.8731 1381.4679 0.0000 0.0000 1679.6521 -7431.8237 290.2608 -9111.4759 -7341.1088 302.3587 -492.8658 -404.3335 29961.1969 92.7732 160.1451
TCL: Running FEP window  14: Lambda1 0.65   Lambda2 0.7000000000000001 [dLambda 0.050000000000000044]
TCL: Setting parameter firsttimestep to 0
TCL: Setting parameter alchLambda to 0.65
Info: NONBONDED TABLE R-SQUARED SPACING: 0.0625
Info: NONBONDED TABLE SIZE: 705 POINTS
TCL: Setting parameter alchLambda2 to 0.7000000000000001
Info: NONBONDED TABLE R-SQUARED SPACING: 0.0625
Info: NONBONDED TABLE SIZE: 705 POINTS
TCL: Running for 1500000 steps
ETITLE: TS BOND ANGLE DIHED IMPRP ELECT VDW BOUNDARY MISC KINETIC TOTAL TEMP POTENTIAL TOTALAVG TEMPAVG PRESSURE GPRESSURE VOLUME PRESSAVG GPRESSAVG
ENERGY: 0 2.3248 13.0804 9.5241 0.0000 -10517.9933 1381.6651 0.0000 0.0000 1678.8058 -7432.5930 290.1145 -9111.3988 -7432.5930 290.1145 -468.3410 -390.7815 29961.1969 -468.3410 -390.7815
ENERGY: 300000 1.0610 6.8351 8.8934 0.0000 -10452.8227 1325.3918 0.0000 0.0000 1716.8182 -7393.8232 296.6835 -9110.6414 -7394.5699 298.9193 -625.1141 -559.5912 29863.0750 -254.8438 -209.6691
ENERGY: 600000 1.7270 11.3460 8.6114 0.0000 -10473.7107 1394.8275 0.0000 0.0000 1719.8371 -7337.3616 297.2051 -9057.1987 -7384.8313 299.3858 36.5218 136.5045 29558.7673 -223.9277 -166.2202
ENERGY: 900000 1.2315 12.8207 10.0980 0.0000 -10504.0761 1362.2445 0.0000 0.0000 1749.7508 -7367.9306 302.3745 -9117.6814 -7373.7159 298.6485 -705.4035 -692.1801 30457.9339 -216.9350 -162.2152
ENERGY: 1200000 1.1843 12.1101 8.5200 0.0000 -10359.2058 1228.4372 0.0000 0.0000 1717.1817 -7391.7725 296.7463 -9108.9542 -7369.8248 298.6556 -1732.1080 -1600.1309 30283.5914 -218.8168 -148.5141
ENERGY: 1500000 0.3981 9.6010 8.3265 0.0000 -10623.3205 1472.9083 0.0000 0.0000 1698.1672 -7433.9194 293.4604 -9132.0866 -7375.1955 297.8978 373.1129 373.2139 29860.8544 -152.4556 -82.6942
TCL: Running FEP window  15: Lambda1 0.7000000000000001 Lambda2 0.7500000000000001 [dLambda 0.050000000000000044]
TCL: Setting parameter firsttimestep to 0
TCL: Setting parameter alchLambda to 0.7000000000000001
Info: NONBONDED TABLE R-SQUARED SPACING: 0.0625
Info: NONBONDED TABLE SIZE: 705 POINTS
TCL: Setting parameter alchLambda2 to 0.7500000000000001
Info: NONBONDED TABLE R-SQUARED SPACING: 0.0625
Info: NONBONDED TABLE SIZE: 705 POINTS
TCL: Running for 1500000 steps
ETITLE: TS BOND ANGLE DIHED IMPRP ELECT VDW BOUNDARY MISC KINETIC TOTAL TEMP POTENTIAL TOTALAVG TEMPAVG PRESSURE GPRESSURE VOLUME PRESSAVG GPRESSAVG
ENERGY: 0 0.3981 9.6010 8.3265 0.0000 -10624.2152 1473.4654 0.0000 0.0000 1697.3053 -7435.1189 293.3114 -9132.4243 -7435.1189 293.3114 321.2939 387.0837 29860.8544 321.2939 387.0837
ENERGY: 300000 1.0738 8.9533 7.2841 0.0000 -10613.4927 1473.9127 0.0000 0.0000 1742.1559 -7380.1130 301.0621 -9122.2688 -7385.7218 297.2368 461.7606 550.7325 29717.4150 168.4549 226.5806
ENERGY: 600000 0.5016 7.2599 11.5587 0.0000 -10649.7679 1451.7156 0.0000 0.0000 1756.3976 -7422.3345 303.5232 -9178.7321 -7396.1329 298.2733 279.0758 312.5916 29505.4930 -33.0993 30.1356
ENERGY: 900000 3.8732 12.3649 11.5512 0.0000 -10570.9505 1424.3539 0.0000 0.0000 1758.9893 -7359.8181 303.9710 -9118.8074 -7384.4976 298.7168 180.4425 208.7960 29678.5748 -24.5054 41.0336
ENERGY: 1200000 3.4936 6.7892 8.4025 0.0000 -10695.7953 1509.7307 0.0000 0.0000 1709.2196 -7458.1598 295.3703 -9167.3794 -7378.9859 298.0414 699.9100 800.1680 29369.4448 -98.5769 -30.0212
ENERGY: 1500000 2.5399 14.7717 9.7317 0.0000 -10432.0184 1345.5813 0.0000 0.0000 1677.1101 -7382.2837 289.8215 -9059.3939 -7373.9621 297.0989 -610.5605 -468.6415 30062.2942 -148.2975 -78.4567
TCL: Running FEP window  16: Lambda1 0.7500000000000001 Lambda2 0.8000000000000002 [dLambda 0.050000000000000044]
TCL: Setting parameter firsttimestep to 0
TCL: Setting parameter alchLambda to 0.7500000000000001
Info: NONBONDED TABLE R-SQUARED SPACING: 0.0625
Info: NONBONDED TABLE SIZE: 705 POINTS
TCL: Setting parameter alchLambda2 to 0.8000000000000002
Info: NONBONDED TABLE R-SQUARED SPACING: 0.0625
Info: NONBONDED TABLE SIZE: 705 POINTS
TCL: Running for 1500000 steps
ETITLE: TS BOND ANGLE DIHED IMPRP ELECT VDW BOUNDARY MISC KINETIC TOTAL TEMP POTENTIAL TOTALAVG TEMPAVG PRESSURE GPRESSURE VOLUME PRESSAVG GPRESSAVG
ENERGY: 0 2.5399 14.7717 9.7317 0.0000 -10433.0161 1346.6638 0.0000 0.0000 1676.2207 -7383.0884 289.6678 -9059.3091 -7383.0884 289.6678 -545.2883 -445.8420 30062.2942 -545.2883 -445.8420
ENERGY: 300000 2.2955 9.8861 11.5143 0.0000 -10475.7640 1315.2848 0.0000 0.0000 1745.6498 -7391.1336 301.6658 -9136.7833 -7388.6675 296.6669 -784.0987 -714.1789 29596.3742 -516.6420 -435.6516
ENERGY: 600000 3.3918 8.8900 7.5173 0.0000 -10498.9553 1402.7842 0.0000 0.0000 1776.3470 -7300.0250 306.9706 -9076.3720 -7343.9518 300.5551 17.4400 128.5487 29984.9726 -308.0239 -238.1579
ENERGY: 900000 1.7580 7.3175 7.7578 0.0000 -10605.4484 1469.2738 0.0000 0.0000 1695.6630 -7423.6782 293.0276 -9119.3412 -7350.5733 299.0507 410.1980 478.0714 29569.8895 -42.8355 27.0381
ENERGY: 1200000 2.1311 8.1931 9.5450 0.0000 -10599.6244 1473.8954 0.0000 0.0000 1698.6979 -7407.1620 293.5521 -9105.8599 -7370.4315 297.6527 414.2469 444.2673 29708.9867 -66.7151 -5.3453
ENERGY: 1500000 3.4926 8.0755 8.7938 0.0000 -10364.4414 1315.6896 0.0000 0.0000 1803.5892 -7224.8007 311.6784 -9028.3899 -7365.0502 298.3522 -407.0615 -307.9658 29900.4736 -49.7154 15.6078
TCL: Running FEP window  17: Lambda1 0.8000000000000002 Lambda2 0.8500000000000002 [dLambda 0.050000000000000044]
TCL: Setting parameter firsttimestep to 0
TCL: Setting parameter alchLambda to 0.8000000000000002
Info: NONBONDED TABLE R-SQUARED SPACING: 0.0625
Info: NONBONDED TABLE SIZE: 705 POINTS
TCL: Setting parameter alchLambda2 to 0.8500000000000002
Info: NONBONDED TABLE R-SQUARED SPACING: 0.0625
Info: NONBONDED TABLE SIZE: 705 POINTS
TCL: Running for 1500000 steps
ETITLE: TS BOND ANGLE DIHED IMPRP ELECT VDW BOUNDARY MISC KINETIC TOTAL TEMP POTENTIAL TOTALAVG TEMPAVG PRESSURE GPRESSURE VOLUME PRESSAVG GPRESSAVG
ENERGY: 0 3.4926 8.0755 8.7938 0.0000 -10365.5771 1316.6055 0.0000 0.0000 1802.7429 -7225.8667 311.5321 -9028.6096 -7225.8667 311.5321 -376.7637 -287.2654 29900.4736 -376.7637 -287.2654
ENERGY: 300000 1.8599 8.2710 11.4146 0.0000 -10608.5023 1433.4099 0.0000 0.0000 1745.1059 -7408.4410 301.5718 -9153.5469 -7348.1320 304.1787 170.0406 271.5483 29659.6639 -193.3438 -109.0910
ENERGY: 600000 0.5604 12.7146 11.7917 0.0000 -10418.3369 1390.4002 0.0000 0.0000 1748.7504 -7254.1196 302.2017 -9002.8700 -7356.3500 300.5925 -39.9752 15.4340 30264.7914 -281.6553 -209.9915
ENERGY: 900000 1.6275 17.4505 10.2393 0.0000 -10488.4518 1411.4615 0.0000 0.0000 1761.2165 -7286.4565 304.3559 -9047.6730 -7359.2154 301.0285 6.5045 124.4594 30090.8126 -200.4396 -131.1370
ENERGY: 1200000 2.2357 8.8060 11.2762 0.0000 -10403.1901 1315.0136 0.0000 0.0000 1742.6007 -7323.2579 301.1389 -9065.8586 -7364.7618 300.1318 -766.1025 -722.3830 29932.7919 -269.7405 -196.2640
ENERGY: 1500000 1.3492 12.4738 9.3985 0.0000 -10556.7057 1375.8011 0.0000 0.0000 1731.0498 -7426.6333 299.1428 -9157.6831 -7369.8502 299.9673 -447.2287 -387.0674 29847.6451 -332.0543 -263.7732
TCL: Running FEP window  18: Lambda1 0.8500000000000002 Lambda2 0.9000000000000002 [dLambda 0.050000000000000044]
TCL: Setting parameter firsttimestep to 0
TCL: Setting parameter alchLambda to 0.8500000000000002
Info: NONBONDED TABLE R-SQUARED SPACING: 0.0625
Info: NONBONDED TABLE SIZE: 705 POINTS
TCL: Setting parameter alchLambda2 to 0.9000000000000002
Info: NONBONDED TABLE R-SQUARED SPACING: 0.0625
Info: NONBONDED TABLE SIZE: 705 POINTS
TCL: Running for 1500000 steps
ETITLE: TS BOND ANGLE DIHED IMPRP ELECT VDW BOUNDARY MISC KINETIC TOTAL TEMP POTENTIAL TOTALAVG TEMPAVG PRESSURE GPRESSURE VOLUME PRESSAVG GPRESSAVG
ENERGY: 0 1.3492 12.4738 9.3985 0.0000 -10557.8881 1376.4934 0.0000 0.0000 1730.1620 -7428.0112 298.9894 -9158.1732 -7428.0112 298.9894 -463.1615 -367.3347 29847.6451 -463.1615 -367.3347
ENERGY: 300000 1.7689 10.8622 11.7100 0.0000 -10578.5699 1427.0750 0.0000 0.0000 1760.3874 -7366.7665 304.2126 -9127.1538 -7376.0653 302.5501 -35.6900 65.4549 30066.6052 -217.9948 -157.4337
ENERGY: 600000 2.5957 7.9868 12.2072 0.0000 -10489.4713 1354.7817 0.0000 0.0000 1779.6432 -7332.2568 307.5402 -9111.9000 -7348.9343 302.3725 -594.1267 -615.6801 30387.4145 -242.4381 -190.0794
ENERGY: 900000 5.1922 5.3389 9.3992 0.0000 -10582.3723 1412.9003 0.0000 0.0000 1748.3797 -7401.1619 302.1376 -9149.5416 -7346.8577 302.5639 -337.3584 -283.1581 29945.4001 -113.4230 -60.6201
ENERGY: 1200000 2.5515 9.6985 10.9836 0.0000 -10446.8628 1397.7804 0.0000 0.0000 1780.3250 -7245.5239 307.6581 -9025.8489 -7345.1875 301.9641 -95.7991 2.9218 30005.3753 -89.9643 -38.0324
ENERGY: 1500000 1.0559 9.7811 10.1754 0.0000 -10589.9924 1441.9322 0.0000 0.0000 1748.6164 -7378.4315 302.1785 -9127.0478 -7343.9117 301.9036 18.9620 94.7387 30014.6019 -10.9366 45.2246
TCL: Running FEP window  19: Lambda1 0.9000000000000002 Lambda2 0.9500000000000003 [dLambda 0.050000000000000044]
TCL: Setting parameter firsttimestep to 0
TCL: Setting parameter alchLambda to 0.9000000000000002
Info: NONBONDED TABLE R-SQUARED SPACING: 0.0625
Info: NONBONDED TABLE SIZE: 705 POINTS
TCL: Setting parameter alchLambda2 to 0.9500000000000003
Info: NONBONDED TABLE R-SQUARED SPACING: 0.0625
Info: NONBONDED TABLE SIZE: 705 POINTS
TCL: Running for 1500000 steps
ETITLE: TS BOND ANGLE DIHED IMPRP ELECT VDW BOUNDARY MISC KINETIC TOTAL TEMP POTENTIAL TOTALAVG TEMPAVG PRESSURE GPRESSURE VOLUME PRESSAVG GPRESSAVG
ENERGY: 0 1.0559 9.7811 10.1754 0.0000 -10590.3963 1441.6671 0.0000 0.0000 1747.7360 -7379.9808 302.0264 -9127.7169 -7379.9808 302.0264 -2.4691 105.3614 30014.6019 -2.4691 105.3614
ENERGY: 300000 2.4741 9.4141 9.3990 0.0000 -10637.6577 1494.2700 0.0000 0.0000 1754.8928 -7367.2077 303.2631 -9122.1005 -7383.4310 298.1080 730.4167 733.0463 29750.3731 84.9499 166.5440
ENERGY: 600000 1.3853 7.9140 9.5563 0.0000 -10456.6939 1267.1456 0.0000 0.0000 1761.6319 -7409.0608 304.4277 -9170.6927 -7384.9065 301.7608 -1088.3042 -1032.9285 29634.1722 -160.5330 -82.0962
ENERGY: 900000 1.3892 14.5810 9.7183 0.0000 -10593.9667 1425.4145 0.0000 0.0000 1762.3190 -7380.5448 304.5464 -9142.8637 -7371.5100 302.9628 -417.1104 -287.3363 30470.3807 -241.6190 -158.0166
ENERGY: 1200000 2.0894 9.3068 8.1761 0.0000 -10551.1973 1500.7810 0.0000 0.0000 1694.7051 -7336.1389 292.8621 -9030.8440 -7377.2175 301.5878 713.6932 738.9016 30060.7161 -89.7875 -14.2147
ENERGY: 1500000 1.4874 9.3417 8.6960 0.0000 -10560.6260 1434.3094 0.0000 0.0000 1707.6234 -7399.1682 295.0945 -9106.7916 -7373.3946 300.6727 -19.0812 56.9268 30186.7115 -58.0724 21.3658
TCL: Running FEP window  20: Lambda1 0.9500000000000003 Lambda2 1.0    [dLambda 0.04999999999999971]
TCL: Setting parameter firsttimestep to 0
TCL: Setting parameter alchLambda to 0.9500000000000003
Info: NONBONDED TABLE R-SQUARED SPACING: 0.0625
Info: NONBONDED TABLE SIZE: 705 POINTS
TCL: Setting parameter alchLambda2 to 1.0
Info: NONBONDED TABLE R-SQUARED SPACING: 0.0625
Info: NONBONDED TABLE SIZE: 705 POINTS
TCL: Running for 1500000 steps
ETITLE: TS BOND ANGLE DIHED IMPRP ELECT VDW BOUNDARY MISC KINETIC TOTAL TEMP POTENTIAL TOTALAVG TEMPAVG PRESSURE GPRESSURE VOLUME PRESSAVG GPRESSAVG
ENERGY: 0 1.4874 9.3417 8.6960 0.0000 -10561.6518 1434.7545 0.0000 0.0000 1706.7378 -7400.6344 294.9415 -9107.3722 -7400.6344 294.9415 -21.5976 76.0639 30186.7115 -21.5976 76.0639
ENERGY: 300000 2.1693 9.0729 10.0643 0.0000 -10589.4116 1410.3590 0.0000 0.0000 1707.9212 -7449.8249 295.1460 -9157.7461 -7382.0208 297.0962 -92.5615 -35.5397 29729.1329 51.6917 123.6658
ENERGY: 600000 1.9527 8.1214 9.9839 0.0000 -10476.8457 1356.4922 0.0000 0.0000 1808.9382 -7291.3573 312.6027 -9100.2955 -7374.0009 299.1047 -383.5185 -268.3002 29757.6875 112.2221 177.5976
ENERGY: 900000 1.2074 9.4607 13.7858 0.0000 -10495.1707 1368.8692 0.0000 0.0000 1703.8840 -7397.9638 294.4483 -9101.8477 -7371.9876 298.9503 -536.1556 -421.1652 30136.4225 20.3844 95.6089
ENERGY: 1200000 1.1551 10.9980 8.2345 0.0000 -10523.7439 1413.3262 0.0000 0.0000 1781.0600 -7308.9702 307.7851 -9090.0302 -7373.1186 299.7417 227.2485 320.8716 29745.5937 -104.0625 -19.6957
ENERGY: 1500000 1.9559 10.4503 8.3807 0.0000 -10590.6787 1417.2920 0.0000 0.0000 1721.8525 -7430.7473 297.5534 -9152.5998 -7373.7227 299.8370 -40.9145 -4.1246 29864.4233 -57.6290 21.8714
TCL: Exiting due to exit command.
