Info: SIMULATION PARAMETERS:
Info: TIMESTEP               2
Info: NUMBER OF STEPS        0
Info: STEPS PER CYCLE        10
Info: PERIODIC CELL BASIS 1  31.682 0 0
Info: PERIODIC CELL BASIS 2  0 33.7076 0
Info: PERIODIC CELL BASIS 3  0 0 29.1153
Info: PERIODIC CELL CENTER   0 0 0
Info: WRAPPING WATERS AROUND PERIODIC BOUNDARIES ON OUTPUT.
Info: WRAPPING ALL CLUSTERS AROUND PERIODIC BOUNDARIES ON OUTPUT.
Info: FIRST LDB TIMESTEP     50
Info: LAST LDB TIMESTEP     -1
Info: HOM BACKGROUND SCALING 1
Info: PME BACKGROUND SCALING 1
Info: MIN ATOMS PER PATCH    40
Info: EMPTY PATCH LOAD       40 ATOMS
Info: VELOCITY FILE          mobley_9197172_equil.vel
Info: CENTER OF MASS MOVING INITIALLY? NO
Info: DIELECTRIC             1
Info: EXCLUDE                SCALED ONE-FOUR
Info: 1-4 ELECTROSTATICS SCALED BY 0.833333
Info: MODIFIED 1-4 VDW PARAMETERS WILL BE USED
Info: DCD FILENAME           mobley_9197172_prod.dcd
Info: DCD FREQUENCY          100000
Info: DCD FIRST STEP         100000
Info: DCD FILE WILL CONTAIN UNIT CELL DATA
Info: XST FILENAME           mobley_9197172_prod.xst
Info: XST FREQUENCY          100000
Info: NO VELOCITY DCD OUTPUT
Info: NO FORCE DCD OUTPUT
Info: OUTPUT FILENAME        mobley_9197172_prod
Info: BINARY OUTPUT FILES WILL BE USED
Info: RESTART FILENAME       mobley_9197172_prod.restart
Info: RESTART FREQUENCY      100000
Info: BINARY RESTART FILES WILL BE USED
Info: CUTOFF                 9
Info: PAIRLIST DISTANCE      11
Info: PAIRLIST SHRINK RATE   0.01
Info: PAIRLIST GROW RATE     0.01
Info: PAIRLIST TRIGGER       0.3
Info: PAIRLISTS PER CYCLE    2
Info: PAIRLISTS ENABLED
Info: MARGIN                 2
Info: HYDROGEN GROUP CUTOFF  2.5
Info: PATCH DIMENSION        15.5
Info: ENERGY OUTPUT STEPS    100000
Info: ENERGY EVALUATION STEPS    100000
Info: OUTPUT ENERGY PRECISION 4
Info: CROSSTERM ENERGY INCLUDED IN DIHEDRAL
Info: TIMING OUTPUT STEPS    1000000
Info: PRESSURE OUTPUT STEPS  100000
Info: ALCHEMICAL FEP ON
Info: FEP CURRENT LAMBDA VALUE     0
Info: FEP COMPARISON LAMBDA VALUE  0.05
Info: FEP INTRA-ALCHEMICAL NON-BONDED INTERACTIONS WILL BE RETAINED
Info: FEP INTRA-ALCHEMICAL BONDED INTERACTIONS WILL BE RETAINED
Info: FEP VDW SHIFTING COEFFICIENT 5
Info: FEP ELEC. ACTIVE FOR ANNIHILATED PARTICLES BETWEEN LAMBDA = 0 AND LAMBDA = 0.5
Info: FEP ELEC. ACTIVE FOR EXNIHILATED PARTICLES BETWEEN LAMBDA = 0.5 AND LAMBDA = 1
Info: FEP VDW ACTIVE FOR ANNIHILATED PARTICLES BETWEEN LAMBDA = 0 AND LAMBDA = 1
Info: FEP VDW ACTIVE FOR EXNIHILATED PARTICLES BETWEEN LAMBDA = 0 AND LAMBDA = 1
Info: FEP BOND ACTIVE FOR ANNIHILATED PARTICLES BETWEEN LAMBDA = 1 AND LAMBDA = 1
Info: FEP BOND ACTIVE FOR EXNIHILATED PARTICLES BETWEEN LAMBDA = 0 AND LAMBDA = 0
Info: LANGEVIN DYNAMICS ACTIVE
Info: LANGEVIN TEMPERATURE   300
Info: LANGEVIN USING BBK INTEGRATOR
Info: LANGEVIN DAMPING COEFFICIENT IS 1 INVERSE PS
Info: LANGEVIN DYNAMICS APPLIED TO HYDROGENS
Info: LANGEVIN PISTON PRESSURE CONTROL ACTIVE
Info:        TARGET PRESSURE IS 1.01325 BAR
Info:     OSCILLATION PERIOD IS 50 FS
Info:             DECAY TIME IS 25 FS
Info:     PISTON TEMPERATURE IS 300 K
Info:       PRESSURE CONTROL IS GROUP-BASED
Info:    INITIAL STRAIN RATE IS 0.000423205 0.000423205 0.000423205
Info:       CELL FLUCTUATION IS ISOTROPIC
Info: PARTICLE MESH EWALD (PME) ACTIVE
Info: PME TOLERANCE               1e-06
Info: PME EWALD COEFFICIENT       0.348832
Info: PME INTERPOLATION ORDER     4
Info: PME GRID DIMENSIONS         32 36 32
Info: PME MAXIMUM GRID SPACING    1
Info: PME CALCULATION WILL BE PERFORMED ON GPU
Info: FULL ELECTROSTATIC EVALUATION FREQUENCY      2
Info: USING VERLET I (r-RESPA) MTS SCHEME.
Info: C1 SPLITTING OF LONG RANGE ELECTROSTATICS
Info: PLACING ATOMS IN PATCHES BY HYDROGEN GROUPS
Info: RIGID BONDS TO HYDROGEN : ALL
Info:         ERROR TOLERANCE : 1e-08
Info:          MAX ITERATIONS : 100
Info: RIGID WATER USING SETTLE ALGORITHM
Info: RANDOM NUMBER SEED     1744015604
Info: USE HYDROGEN BONDS?    NO
Info: Using AMBER format force field!
Info: AMBER PARM FILE        mobley_9197172.prmtop
Info: COORDINATE PDB         mobley_9197172.pdb
Info: Exclusions will be read from PARM file!
Info: SCNB (VDW SCALING)     2
Info: USING ARITHMETIC MEAN TO COMBINE L-J SIGMA PARAMETERS
Info: BINARY COORDINATES     mobley_9197172_equil.coor
Info: SUMMARY OF PARAMETERS:
Info: 7 BONDS
Info: 9 ANGLES
Info:   9 HARMONIC
Info:   0 COSINE-BASED
Info: 11 DIHEDRAL
Info: 0 IMPROPER
Info: 0 CROSSTERM
Info: 0 VDW
Info: 21 VDW_PAIRS
Info: 0 NBTHOLE_PAIRS
Info: To read alchdata from file: mobley_9197172.pdb
Info: To read alchflag data from column: 5
Info: STRUCTURE SUMMARY:
Info: 2982 ATOMS
Info: 2981 BONDS
Info: 42 ANGLES
Info: 67 DIHEDRALS
Info: 0 IMPROPERS
Info: 0 CROSSTERMS
Info: 3078 EXCLUSIONS
Info: 2974 RIGID BONDS
Info: ALCH: 0 ATOMS TO DISAPPEAR IN FINAL STATE
Info: ALCH: 24 ATOMS TO APPEAR IN FINAL STATE
Info: 5972 DEGREES OF FREEDOM
Info: 994 HYDROGEN GROUPS
Info: 4 ATOMS IN LARGEST HYDROGEN GROUP
Info: 994 MIGRATION GROUPS
Info: 4 ATOMS IN LARGEST MIGRATION GROUP
Info: TOTAL MASS = 17876 amu
Info: TOTAL CHARGE = -0.000100002 e
Info: MASS DENSITY = 0.954701 g/cm^3
Info: ATOM DENSITY = 0.0959061 atoms/A^3
Info: ADDED 0 IMPLICIT EXCLUSIONS
Info: NONBONDED TABLE R-SQUARED SPACING: 0.0625
Info: NONBONDED TABLE SIZE: 705 POINTS
Info: REDUCING NUMBER OF PATCHES TO IMPROVE LOAD BALANCE
Info: REMOVING COM VELOCITY 0.0275657 0.115627 0.0720592
Info: Use 3D box decompostion in PME FFT.
Info: Updated CUDA force table with 4096 elements.
Info: Updated CUDA LJ table with 6 x 6 elements.
Info: Found 27 unique exclusion lists needing 88 bytes
TCL: Running for 1500000 steps
ETITLE: TS BOND ANGLE DIHED IMPRP ELECT VDW BOUNDARY MISC KINETIC TOTAL TEMP POTENTIAL TOTALAVG TEMPAVG PRESSURE GPRESSURE VOLUME PRESSAVG GPRESSAVG
ENERGY: 0 2.9179 11.0067 3.4144 0.0000 -10587.8672 1337.7179 0.0000 0.0000 1810.7255 -7422.0847 305.1569 -9232.8102 -7422.0847 305.1569 -843.7760 -765.0688 31092.9280 -843.7760 -765.0688
ENERGY: 300000 4.9393 8.3663 5.5586 0.0000 -10834.7285 1545.3193 0.0000 0.0000 1799.2468 -7471.2982 303.2224 -9270.5450 -7501.3648 302.8046 876.4498 937.8135 30102.3136 209.5514 274.3422
ENERGY: 600000 1.0919 10.3856 5.6771 0.0000 -10762.0417 1463.7342 0.0000 0.0000 1808.4475 -7472.7054 304.7730 -9281.1529 -7515.7436 301.1436 328.8476 376.9432 30312.0817 -15.1177 43.8814
ENERGY: 900000 2.6826 5.6215 7.2912 0.0000 -10811.0421 1492.3651 0.0000 0.0000 1774.1750 -7528.9066 298.9972 -9303.0816 -7520.1023 300.8598 536.1492 585.1006 30144.7248 -92.2167 -31.6404
ENERGY: 1200000 2.2769 12.2925 5.7403 0.0000 -10755.1924 1394.9887 0.0000 0.0000 1738.7360 -7601.1581 293.0247 -9339.8941 -7525.5841 300.0075 -644.0185 -601.2814 30426.6836 -192.7084 -132.3233
ENERGY: 1500000 2.6999 11.9294 5.5447 0.0000 -10603.1529 1374.3347 0.0000 0.0000 1842.7775 -7365.8668 310.5585 -9208.6443 -7517.1024 301.4308 -203.9016 -189.8345 30269.3322 -107.4832 -52.4214
TCL: Running FEP window   2: Lambda1 0.05   Lambda2 0.1    [dLambda 0.05  ]
TCL: Setting parameter firsttimestep to 0
TCL: Setting parameter alchLambda to 0.05
Info: NONBONDED TABLE R-SQUARED SPACING: 0.0625
Info: NONBONDED TABLE SIZE: 705 POINTS
TCL: Setting parameter alchLambda2 to 0.1
Info: NONBONDED TABLE R-SQUARED SPACING: 0.0625
Info: NONBONDED TABLE SIZE: 705 POINTS
TCL: Running for 1500000 steps
ETITLE: TS BOND ANGLE DIHED IMPRP ELECT VDW BOUNDARY MISC KINETIC TOTAL TEMP POTENTIAL TOTALAVG TEMPAVG PRESSURE GPRESSURE VOLUME PRESSAVG GPRESSAVG
ENERGY: 0 2.6999 11.9294 5.5447 0.0000 -10603.1520 1376.4172 0.0000 0.0000 1841.9070 -7364.6538 310.4118 -9206.5608 -7364.6538 310.4118 -273.4071 -181.5167 30269.3322 -273.4071 -181.5167
ENERGY: 300000 3.8675 12.9972 5.0931 0.0000 -10753.8235 1466.8263 0.0000 0.0000 1769.1658 -7495.8736 298.1530 -9265.0394 -7460.9401 302.4414 -156.7727 -34.4851 30844.2530 -396.3848 -305.3115
ENERGY: 600000 4.2019 14.6524 6.6301 0.0000 -10813.3950 1475.0665 0.0000 0.0000 1789.3348 -7523.5094 301.5520 -9312.8442 -7487.2924 301.2142 176.0337 222.9993 30227.5334 -306.6886 -232.8451
ENERGY: 900000 2.7520 16.0810 4.7127 0.0000 -10699.1098 1409.7519 0.0000 0.0000 1734.6375 -7531.1747 292.3340 -9265.8122 -7488.8295 301.0391 -271.2812 -227.6141 30759.7558 -355.8192 -287.5815
ENERGY: 1200000 2.3927 6.6432 5.1360 0.0000 -10459.7785 1251.8255 0.0000 0.0000 1823.1158 -7370.6653 307.2450 -9193.7811 -7490.4255 301.6055 -1446.4024 -1421.1836 31095.8388 -455.2128 -384.0550
ENERGY: 1500000 2.5585 12.2446 7.0842 0.0000 -10618.2234 1344.4615 0.0000 0.0000 1756.9220 -7494.9526 296.0895 -9251.8746 -7498.7740 300.9686 -728.5457 -694.0811 30498.2867 -391.1428 -326.8284
TCL: Running FEP window   3: Lambda1 0.1    Lambda2 0.15000000000000002 [dLambda 0.05000000000000002]
TCL: Setting parameter firsttimestep to 0
TCL: Setting parameter alchLambda to 0.1
Info: NONBONDED TABLE R-SQUARED SPACING: 0.0625
Info: NONBONDED TABLE SIZE: 705 POINTS
TCL: Setting parameter alchLambda2 to 0.15000000000000002
Info: NONBONDED TABLE R-SQUARED SPACING: 0.0625
Info: NONBONDED TABLE SIZE: 705 POINTS
TCL: Running for 1500000 steps
ETITLE: TS BOND ANGLE DIHED IMPRP ELECT VDW BOUNDARY MISC KINETIC TOTAL TEMP POTENTIAL TOTALAVG TEMPAVG PRESSURE GPRESSURE VOLUME PRESSAVG GPRESSAVG
ENERGY: 0 2.5585 12.2446 7.0842 0.0000 -10618.2243 1344.4778 0.0000 0.0000 1756.0298 -7495.8295 295.9392 -9251.8592 -7495.8295 295.9392 -769.3822 -688.7851 30498.2867 -769.3822 -688.7851
ENERGY: 300000 1.7305 14.5604 7.2414 0.0000 -10726.2092 1445.7809 0.0000 0.0000 1770.1534 -7486.7426 298.3194 -9256.8960 -7528.7133 298.5919 151.3889 177.8807 30367.8304 -280.5693 -207.1212
ENERGY: 600000 1.6581 13.5414 5.2117 0.0000 -10784.7481 1443.0589 0.0000 0.0000 1812.9330 -7508.3449 305.5289 -9321.2779 -7523.1615 301.5258 -164.5365 -59.7378 30413.2303 -233.0760 -150.9760
ENERGY: 900000 2.8656 16.2424 7.8530 0.0000 -10854.4895 1508.6083 0.0000 0.0000 1839.7834 -7479.1368 310.0540 -9318.9202 -7507.4509 302.7396 429.3197 512.6995 30343.3465 -132.5638 -54.5331
ENERGY: 1200000 2.9573 11.0471 5.0518 0.0000 -10817.5002 1526.0006 0.0000 0.0000 1750.6274 -7521.8160 295.0287 -9272.4434 -7498.3370 302.1587 467.9314 488.8878 30516.1602 -75.9170 -11.9827
ENERGY: 1500000 4.6899 10.2482 7.8324 0.0000 -10725.3994 1409.1196 0.0000 0.0000 1756.6890 -7536.8205 296.0503 -9293.5094 -7507.1960 301.1144 -286.5895 -269.2852 30567.7683 -55.0630 9.8585
TCL: Running FEP window   4: Lambda1 0.15000000000000002 Lambda2 0.2    [dLambda 0.04999999999999999]
TCL: Setting parameter firsttimestep to 0
TCL: Setting parameter alchLambda to 0.15000000000000002
Info: NONBONDED TABLE R-SQUARED SPACING: 0.0625
Info: NONBONDED TABLE SIZE: 705 POINTS
TCL: Setting parameter alchLambda2 to 0.2
Info: NONBONDED TABLE R-SQUARED SPACING: 0.0625
Info: NONBONDED TABLE SIZE: 705 POINTS
TCL: Running for 1500000 steps
ETITLE: TS BOND ANGLE DIHED IMPRP ELECT VDW BOUNDARY MISC KINETIC TOTAL TEMP POTENTIAL TOTALAVG TEMPAVG PRESSURE GPRESSURE VOLUME PRESSAVG GPRESSAVG
ENERGY: 0 4.6899 10.2482 7.8324 0.0000 -10725.3966 1411.1017 0.0000 0.0000 1755.7997 -7535.7247 295.9004 -9291.5244 -7535.7247 295.9004 -351.0487 -263.3827 30567.7683 -351.0487 -263.3827
ENERGY: 300000 1.5693 12.8143 4.9280 0.0000 -10761.6459 1449.7576 0.0000 0.0000 1799.9886 -7492.5882 303.3474 -9292.5768 -7505.9815 302.3219 -238.9600 -53.1469 30933.1154 29.9557 129.0173
ENERGY: 600000 2.3142 5.9468 7.4182 0.0000 -10899.0854 1505.2977 0.0000 0.0000 1747.9047 -7630.2037 294.5699 -9378.1084 -7524.6140 300.6663 494.3121 531.8937 29936.0327 323.9961 401.6332
ENERGY: 900000 4.2036 12.4544 6.8060 0.0000 -10867.1262 1530.9769 0.0000 0.0000 1725.9470 -7586.7383 290.8694 -9312.6853 -7535.0131 297.6537 144.8633 229.9995 30719.4754 212.8540 291.1459
ENERGY: 1200000 0.9668 6.0967 5.3151 0.0000 -10747.9339 1433.5740 0.0000 0.0000 1793.1512 -7508.8301 302.1952 -9301.9813 -7526.7882 297.8341 -284.1430 -327.6505 31087.5186 229.2894 293.9779
ENERGY: 1500000 2.6751 9.2441 5.6829 0.0000 -10979.7504 1649.5812 0.0000 0.0000 1794.3689 -7518.1983 302.4004 -9312.5672 -7522.6095 298.7309 1912.9256 1870.4987 29822.8391 388.5572 450.5617
TCL: Running FEP window   5: Lambda1 0.2    Lambda2 0.25   [dLambda 0.04999999999999999]
TCL: Setting parameter firsttimestep to 0
TCL: Setting parameter alchLambda to 0.2
Info: NONBONDED TABLE R-SQUARED SPACING: 0.0625
Info: NONBONDED TABLE SIZE: 705 POINTS
TCL: Setting parameter alchLambda2 to 0.25
Info: NONBONDED TABLE R-SQUARED SPACING: 0.0625
Info: NONBONDED TABLE SIZE: 705 POINTS
TCL: Running for 1500000 steps
ETITLE: TS BOND ANGLE DIHED IMPRP ELECT VDW BOUNDARY MISC KINETIC TOTAL TEMP POTENTIAL TOTALAVG TEMPAVG PRESSURE GPRESSURE VOLUME PRESSAVG GPRESSAVG
ENERGY: 0 2.6751 9.2441 5.6829 0.0000 -10979.7505 1650.1737 0.0000 0.0000 1793.5025 -7518.4723 302.2544 -9311.9747 -7518.4723 302.2544 1804.1537 1875.0361 29822.8391 1804.1537 1875.0361
ENERGY: 300000 2.2388 12.9502 6.1183 0.0000 -10749.6858 1443.2605 0.0000 0.0000 1747.1526 -7537.9654 294.4431 -9285.1180 -7551.8414 298.5635 62.8250 116.7752 30631.9291 838.9932 905.5500
ENERGY: 600000 1.7947 13.6065 7.3625 0.0000 -10712.5582 1427.9788 0.0000 0.0000 1726.9551 -7534.8607 291.0393 -9261.8158 -7524.2682 297.9372 84.8005 162.9461 30319.9176 498.6386 566.9205
ENERGY: 900000 1.0894 10.7914 10.5532 0.0000 -10782.3232 1422.0296 0.0000 0.0000 1808.8048 -7529.0548 304.8332 -9337.8596 -7511.5674 300.2820 -295.0747 -251.8110 30138.5604 403.5329 459.0851
ENERGY: 1200000 1.3335 13.5757 7.5055 0.0000 -10579.0283 1328.9480 0.0000 0.0000 1809.4386 -7418.2270 304.9400 -9227.6656 -7497.3982 301.5445 -919.6417 -840.5521 30816.6789 260.5703 323.0746
ENERGY: 1500000 3.3289 10.7601 5.9095 0.0000 -10625.4630 1351.4876 0.0000 0.0000 1763.6371 -7490.3398 297.2212 -9253.9769 -7508.3321 300.7514 -492.2107 -439.4038 30303.9201 258.1480 325.4823
TCL: Running FEP window   6: Lambda1 0.25   Lambda2 0.3    [dLambda 0.04999999999999999]
TCL: Setting parameter firsttimestep to 0
TCL: Setting parameter alchLambda to 0.25
Info: NONBONDED TABLE R-SQUARED SPACING: 0.0625
Info: NONBONDED TABLE SIZE: 705 POINTS
TCL: Setting parameter alchLambda2 to 0.3
Info: NONBONDED TABLE R-SQUARED SPACING: 0.0625
Info: NONBONDED TABLE SIZE: 705 POINTS
TCL: Running for 1500000 steps
ETITLE: TS BOND ANGLE DIHED IMPRP ELECT VDW BOUNDARY MISC KINETIC TOTAL TEMP POTENTIAL TOTALAVG TEMPAVG PRESSURE GPRESSURE VOLUME PRESSAVG GPRESSAVG
ENERGY: 0 3.3289 10.7601 5.9095 0.0000 -10625.4617 1353.9413 0.0000 0.0000 1762.7281 -7488.7937 297.0680 -9251.5219 -7488.7937 297.0680 -504.4895 -418.6960 30303.9201 -504.4895 -418.6960
ENERGY: 300000 0.9095 6.5152 8.9816 0.0000 -10803.0595 1469.6627 0.0000 0.0000 1735.8933 -7581.0972 292.5456 -9316.9905 -7517.6360 296.6968 -34.3315 98.7882 30587.9614 -174.0089 -84.7028
ENERGY: 600000 2.5009 11.0158 6.6171 0.0000 -10684.8983 1377.7992 0.0000 0.0000 1814.5524 -7472.4129 305.8018 -9286.9653 -7501.1939 299.2997 -663.8446 -656.3384 30745.5777 -192.9994 -128.3708
ENERGY: 900000 1.2249 11.6279 7.8608 0.0000 -10815.7358 1469.4258 0.0000 0.0000 1750.5152 -7575.0812 295.0098 -9325.5964 -7517.2186 299.2005 64.9990 138.0713 30624.7135 -119.4127 -57.3673
ENERGY: 1200000 1.3650 13.3614 6.9151 0.0000 -10833.9779 1430.7525 0.0000 0.0000 1755.4972 -7626.0865 295.8494 -9381.5838 -7527.8439 299.1577 -197.2394 -181.0360 30424.3381 -62.8165 -6.9603
ENERGY: 1500000 2.6800 12.0983 8.3357 0.0000 -10731.3206 1454.6478 0.0000 0.0000 1779.8933 -7473.6655 299.9608 -9253.5588 -7531.3816 298.9452 258.7117 299.9642 30240.7840 31.7927 84.8383
TCL: Running FEP window   7: Lambda1 0.3    Lambda2 0.35   [dLambda 0.04999999999999999]
TCL: Setting parameter firsttimestep to 0
TCL: Setting parameter alchLambda to 0.3
Info: NONBONDED TABLE R-SQUARED SPACING: 0.0625
Info: NONBONDED TABLE SIZE: 705 POINTS
TCL: Setting parameter alchLambda2 to 0.35
Info: NONBONDED TABLE R-SQUARED SPACING: 0.0625
Info: NONBONDED TABLE SIZE: 705 POINTS
TCL: Running for 1500000 steps
ETITLE: TS BOND ANGLE DIHED IMPRP ELECT VDW BOUNDARY MISC KINETIC TOTAL TEMP POTENTIAL TOTALAVG TEMPAVG PRESSURE GPRESSURE VOLUME PRESSAVG GPRESSAVG
ENERGY: 0 2.6800 12.0983 8.3357 0.0000 -10731.3186 1454.0551 0.0000 0.0000 1779.0201 -7475.1294 299.8137 -9254.1495 -7475.1294 299.8137 224.4471 299.7702 30240.7840 224.4471 299.7702
ENERGY: 300000 1.3974 12.3435 7.2233 0.0000 -10878.8183 1521.4479 0.0000 0.0000 1789.9270 -7546.4792 301.6518 -9336.4063 -7521.3377 299.2273 408.4295 460.7483 30463.7036 115.9830 157.6788
ENERGY: 600000 0.5998 11.1003 8.2734 0.0000 -10796.0882 1470.7598 0.0000 0.0000 1805.1319 -7500.2231 304.2142 -9305.3550 -7523.9662 298.2359 187.4358 309.1191 30330.3103 60.0753 124.6464
ENERGY: 900000 1.6003 12.2501 4.4706 0.0000 -10764.1850 1442.2663 0.0000 0.0000 1766.5681 -7537.0296 297.7152 -9303.5978 -7517.4323 298.7112 -154.2944 -30.9933 30789.8184 -58.0430 6.2600
ENERGY: 1200000 3.6007 13.0481 10.9998 0.0000 -10916.7464 1553.7157 0.0000 0.0000 1763.7930 -7571.5891 297.2475 -9335.3821 -7518.9772 298.6629 417.8701 533.7659 30797.1286 -26.5424 42.6505
ENERGY: 1500000 1.3167 14.9735 6.6696 0.0000 -10919.5885 1536.9510 0.0000 0.0000 1759.4183 -7600.2594 296.5102 -9359.6777 -7518.7754 299.3633 495.5323 601.2961 30447.7444 -12.5471 53.2607
TCL: Running FEP window   8: Lambda1 0.35   Lambda2 0.39999999999999997 [dLambda 0.04999999999999999]
TCL: Setting parameter firsttimestep to 0
TCL: Setting parameter alchLambda to 0.35
Info: NONBONDED TABLE R-SQUARED SPACING: 0.0625
Info: NONBONDED TABLE SIZE: 705 POINTS
TCL: Setting parameter alchLambda2 to 0.39999999999999997
Info: NONBONDED TABLE R-SQUARED SPACING: 0.0625
Info: NONBONDED TABLE SIZE: 705 POINTS
TCL: Running for 1500000 steps
ETITLE: TS BOND ANGLE DIHED IMPRP ELECT VDW BOUNDARY MISC KINETIC TOTAL TEMP POTENTIAL TOTALAVG TEMPAVG PRESSURE GPRESSURE VOLUME PRESSAVG GPRESSAVG
ENERGY: 0 1.3167 14.9735 6.6696 0.0000 -10919.5876 1536.8292 0.0000 0.0000 1758.5406 -7601.2580 296.3623 -9359.7986 -7601.2580 296.3623 512.3321 604.8636 30447.7444 512.3321 604.8636
ENERGY: 300000 1.5313 10.4490 4.7439 0.0000 -10808.2316 1477.3521 0.0000 0.0000 1747.7284 -7566.4269 294.5402 -9314.1553 -7529.9182 298.2958 67.1476 89.9994 30628.1439 -180.5798 -114.6606
ENERGY: 600000 2.4460 11.7790 5.0383 0.0000 -10792.4171 1451.5798 0.0000 0.0000 1782.9464 -7538.6276 300.4754 -9321.5740 -7548.1546 298.3882 17.7883 23.7544 30461.2935 -179.9618 -110.5291
ENERGY: 900000 1.7871 7.5635 6.5122 0.0000 -10848.9243 1488.1844 0.0000 0.0000 1779.3371 -7565.5400 299.8671 -9344.8771 -7561.7298 297.5661 159.3943 208.6709 30742.8062 -53.2014 11.6520
ENERGY: 1200000 2.9928 7.9248 9.6570 0.0000 -10863.7032 1533.3744 0.0000 0.0000 1754.4364 -7555.3178 295.6707 -9309.7542 -7566.1350 297.1794 671.7727 749.8171 30470.6044 -39.7995 21.6502
ENERGY: 1500000 3.6756 15.7543 5.6481 0.0000 -10935.7434 1577.0534 0.0000 0.0000 1825.4136 -7508.1984 307.6323 -9333.6120 -7555.3953 298.8033 599.9776 676.3087 30921.2702 6.8480 67.6376
TCL: Running FEP window   9: Lambda1 0.39999999999999997 Lambda2 0.44999999999999996 [dLambda 0.04999999999999999]
TCL: Setting parameter firsttimestep to 0
TCL: Setting parameter alchLambda to 0.39999999999999997
Info: NONBONDED TABLE R-SQUARED SPACING: 0.0625
Info: NONBONDED TABLE SIZE: 705 POINTS
TCL: Setting parameter alchLambda2 to 0.44999999999999996
Info: NONBONDED TABLE R-SQUARED SPACING: 0.0625
Info: NONBONDED TABLE SIZE: 705 POINTS
TCL: Running for 1500000 steps
ETITLE: TS BOND ANGLE DIHED IMPRP ELECT VDW BOUNDARY MISC KINETIC TOTAL TEMP POTENTIAL TOTALAVG TEMPAVG PRESSURE GPRESSURE VOLUME PRESSAVG GPRESSAVG
ENERGY: 0 3.6756 15.7543 5.6481 0.0000 -10935.7422 1576.6309 0.0000 0.0000 1824.5049 -7509.5283 307.4791 -9334.0333 -7509.5283 307.4791 591.7880 678.8421 30921.2702 591.7880 678.8421
ENERGY: 300000 1.5676 7.3071 6.3437 0.0000 -10921.7182 1593.9324 0.0000 0.0000 1745.7186 -7566.8489 294.2015 -9312.5675 -7530.0744 301.1100 940.9114 1038.7018 30686.5697 339.4354 416.9021
ENERGY: 600000 3.5289 8.6706 8.8353 0.0000 -10931.5330 1550.2373 0.0000 0.0000 1808.1066 -7552.1544 304.7155 -9360.2609 -7506.4280 302.6063 795.2420 867.5082 30184.2375 367.8086 430.7766
ENERGY: 900000 5.9667 9.9813 3.7180 0.0000 -10647.4502 1387.7938 0.0000 0.0000 1751.7059 -7488.2844 295.2105 -9239.9904 -7512.1807 301.1428 -716.6606 -629.3519 31076.8506 192.7919 255.3188
ENERGY: 1200000 2.1607 9.1973 6.9347 0.0000 -10753.0910 1462.7964 0.0000 0.0000 1835.9291 -7436.0729 309.4044 -9272.0020 -7508.2611 301.9124 179.5685 259.9951 30378.4153 134.4871 193.3674
ENERGY: 1500000 1.2470 8.8075 7.3921 0.0000 -10802.0448 1442.7257 0.0000 0.0000 1823.6012 -7518.2712 307.3268 -9341.8725 -7514.2487 301.3481 52.8998 91.8855 30207.8530 23.9407 84.3860
TCL: Running FEP window  10: Lambda1 0.44999999999999996 Lambda2 0.49999999999999994 [dLambda 0.04999999999999999]
TCL: Setting parameter firsttimestep to 0
TCL: Setting parameter alchLambda to 0.44999999999999996
Info: NONBONDED TABLE R-SQUARED SPACING: 0.0625
Info: NONBONDED TABLE SIZE: 705 POINTS
TCL: Setting parameter alchLambda2 to 0.49999999999999994
Info: NONBONDED TABLE R-SQUARED SPACING: 0.0625
Info: NONBONDED TABLE SIZE: 705 POINTS
TCL: Running for 1500000 steps
ETITLE: TS BOND ANGLE DIHED IMPRP ELECT VDW BOUNDARY MISC KINETIC TOTAL TEMP POTENTIAL TOTALAVG TEMPAVG PRESSURE GPRESSURE VOLUME PRESSAVG GPRESSAVG
ENERGY: 0 1.2470 8.8075 7.3921 0.0000 -10802.0450 1442.5008 0.0000 0.0000 1822.6774 -7519.4202 307.1711 -9342.0976 -7519.4202 307.1711 24.7878 96.6344 30207.8530 24.7878 96.6344
ENERGY: 300000 2.6457 10.4126 4.3340 0.0000 -10769.7176 1425.9893 0.0000 0.0000 1823.6868 -7502.6492 307.3412 -9326.3360 -7502.4757 299.6604 -521.3419 -433.3116 30799.6905 -45.7710 25.7437
ENERGY: 600000 0.4992 8.7244 6.1569 0.0000 -10761.3294 1480.6109 0.0000 0.0000 1782.4405 -7482.8975 300.3901 -9265.3380 -7510.3573 298.8546 182.0976 213.0378 30921.5899 53.7610 105.1212
ENERGY: 900000 1.5693 11.0743 5.1108 0.0000 -10758.1857 1400.6469 0.0000 0.0000 1779.3733 -7560.4111 299.8732 -9339.7844 -7518.1579 299.8657 -490.7155 -426.5027 30517.5328 -15.2868 46.1009
ENERGY: 1200000 6.0027 10.6260 4.8100 0.0000 -10813.1076 1483.7325 0.0000 0.0000 1780.9854 -7526.9510 300.1449 -9307.9365 -7521.9403 299.1575 402.7574 386.4966 30344.9653 80.5272 132.5991
ENERGY: 1500000 1.7169 11.2099 5.9983 0.0000 -10721.7143 1403.0737 0.0000 0.0000 1753.7660 -7545.9494 295.5577 -9299.7154 -7519.7819 298.6453 -432.7214 -349.4077 30690.1102 21.0457 74.8077
TCL: Running FEP window  11: Lambda1 0.49999999999999994 Lambda2 0.5499999999999999 [dLambda 0.04999999999999999]
TCL: Setting parameter firsttimestep to 0
TCL: Setting parameter alchLambda to 0.49999999999999994
Info: NONBONDED TABLE R-SQUARED SPACING: 0.0625
Info: NONBONDED TABLE SIZE: 705 POINTS
TCL: Setting parameter alchLambda2 to 0.5499999999999999
Info: NONBONDED TABLE R-SQUARED SPACING: 0.0625
Info: NONBONDED TABLE SIZE: 705 POINTS
TCL: Running for 1500000 steps
ETITLE: TS BOND ANGLE DIHED IMPRP ELECT VDW BOUNDARY MISC KINETIC TOTAL TEMP POTENTIAL TOTALAVG TEMPAVG PRESSURE GPRESSURE VOLUME PRESSAVG GPRESSAVG
ENERGY: 0 1.7169 11.2099 5.9983 0.0000 -10721.7140 1402.9954 0.0000 0.0000 1752.8695 -7546.9239 295.4066 -9299.7934 -7546.9239 295.4066 -422.1770 -338.5311 30690.1102 -422.1770 -338.5311
ENERGY: 300000 5.3286 8.6450 7.5855 0.0000 -10759.6173 1368.7563 0.0000 0.0000 1731.6332 -7637.6687 291.8277 -9369.3019 -7571.9412 296.3745 -1026.4756 -900.4943 30710.4212 -646.9667 -564.1499
ENERGY: 600000 2.7253 9.5310 7.8662 0.0000 -10846.9395 1486.8807 0.0000 0.0000 1838.1681 -7501.7682 309.7817 -9339.9362 -7545.8109 300.1009 144.8390 227.4599 30413.5334 -487.1061 -414.4005
ENERGY: 900000 1.8140 6.2987 6.6091 0.0000 -10927.5778 1532.3940 0.0000 0.0000 1717.4851 -7662.9768 289.4433 -9380.4619 -7558.0492 299.1504 492.8453 568.5353 30244.2788 -296.3014 -225.5916
ENERGY: 1200000 1.7412 10.2947 5.2952 0.0000 -10585.4953 1365.9263 0.0000 0.0000 1749.9223 -7452.3156 294.9099 -9202.2379 -7549.3511 298.0418 -661.0391 -607.3431 31368.5587 -253.3422 -188.1435
ENERGY: 1500000 1.9291 11.3948 8.8401 0.0000 -10864.6873 1501.0131 0.0000 0.0000 1767.2372 -7574.2729 297.8279 -9341.5101 -7551.5760 297.6390 311.9441 356.6550 30331.5586 -222.0791 -157.2542
TCL: Running FEP window  12: Lambda1 0.5499999999999999 Lambda2 0.6    [dLambda 0.050000000000000044]
TCL: Setting parameter firsttimestep to 0
TCL: Setting parameter alchLambda to 0.5499999999999999
Info: NONBONDED TABLE R-SQUARED SPACING: 0.0625
Info: NONBONDED TABLE SIZE: 705 POINTS
TCL: Setting parameter alchLambda2 to 0.6
Info: NONBONDED TABLE R-SQUARED SPACING: 0.0625
Info: NONBONDED TABLE SIZE: 705 POINTS
TCL: Running for 1500000 steps
ETITLE: TS BOND ANGLE DIHED IMPRP ELECT VDW BOUNDARY MISC KINETIC TOTAL TEMP POTENTIAL TOTALAVG TEMPAVG PRESSURE GPRESSURE VOLUME PRESSAVG GPRESSAVG
ENERGY: 0 1.9291 11.3948 8.8401 0.0000 -10864.5501 1501.0975 0.0000 0.0000 1766.3287 -7574.9599 297.6748 -9341.2886 -7574.9599 297.6748 280.4831 368.4255 30331.5586 280.4831 368.4255
ENERGY: 300000 4.1710 8.0743 6.5868 0.0000 -10867.9596 1467.8188 0.0000 0.0000 1761.3031 -7620.0056 296.8279 -9381.3086 -7547.0351 297.7642 -304.1119 -239.6505 30871.0336 -42.3568 32.3988
ENERGY: 600000 1.9182 14.5765 4.7279 0.0000 -10678.6140 1413.8286 0.0000 0.0000 1821.1964 -7422.3664 306.9215 -9243.5628 -7522.0793 300.4913 23.4213 83.2053 30564.5341 -151.1912 -82.0155
ENERGY: 900000 3.4590 8.7148 6.4826 0.0000 -10732.4081 1409.9026 0.0000 0.0000 1776.8133 -7527.0357 299.4418 -9303.8490 -7525.7396 299.5556 -36.1721 -18.0879 30300.8734 -148.4632 -91.2966
ENERGY: 1200000 2.2062 11.2975 6.9082 0.0000 -10814.2955 1479.3855 0.0000 0.0000 1780.4745 -7534.0236 300.0588 -9314.4981 -7521.1748 299.7618 419.2982 435.6945 30214.1440 -27.0726 28.0251
ENERGY: 1500000 3.6905 10.0446 7.7144 0.0000 -10678.3053 1382.0436 0.0000 0.0000 1692.2391 -7582.5732 285.1887 -9274.8123 -7523.7673 299.8014 -756.3190 -657.4674 31052.9574 0.1948 52.8995
TCL: Running FEP window  13: Lambda1 0.6    Lambda2 0.65   [dLambda 0.050000000000000044]
TCL: Setting parameter firsttimestep to 0
TCL: Setting parameter alchLambda to 0.6
Info: NONBONDED TABLE R-SQUARED SPACING: 0.0625
Info: NONBONDED TABLE SIZE: 705 POINTS
TCL: Setting parameter alchLambda2 to 0.65
Info: NONBONDED TABLE R-SQUARED SPACING: 0.0625
Info: NONBONDED TABLE SIZE: 705 POINTS
TCL: Running for 1500000 steps
ETITLE: TS BOND ANGLE DIHED IMPRP ELECT VDW BOUNDARY MISC KINETIC TOTAL TEMP POTENTIAL TOTALAVG TEMPAVG PRESSURE GPRESSURE VOLUME PRESSAVG GPRESSAVG
ENERGY: 0 3.6905 10.0446 7.7144 0.0000 -10678.2819 1382.5425 0.0000 0.0000 1691.3387 -7582.9512 285.0370 -9274.2899 -7582.9512 285.0370 -729.0392 -641.8936 31052.9574 -729.0392 -641.8936
ENERGY: 300000 2.0255 12.2398 5.7087 0.0000 -10850.7209 1530.5942 0.0000 0.0000 1785.1226 -7515.0301 300.8421 -9300.1527 -7488.5906 298.4681 848.5504 809.7327 30344.4009 -8.3366 19.9583
ENERGY: 600000 0.8038 14.3210 5.5993 0.0000 -10755.2506 1414.1572 0.0000 0.0000 1780.1900 -7540.1793 300.0108 -9320.3693 -7481.7522 300.0770 -145.1132 -80.7487 30320.6809 132.4950 180.4203
ENERGY: 900000 3.2810 9.2197 5.9940 0.0000 -10814.5712 1493.3467 0.0000 0.0000 1762.1944 -7540.5354 296.9781 -9302.7299 -7492.7480 300.1428 79.6424 191.8903 30974.3887 120.8986 187.2649
ENERGY: 1200000 1.6161 14.1293 6.9276 0.0000 -10867.9305 1517.7163 0.0000 0.0000 1747.3899 -7580.1513 294.4831 -9327.5412 -7491.0684 299.7511 271.6809 323.2799 30868.2560 104.9946 174.7393
ENERGY: 1500000 0.7611 11.9810 9.2918 0.0000 -10692.1196 1412.6444 0.0000 0.0000 1735.4222 -7522.0192 292.4662 -9257.4413 -7494.5585 298.7542 2.1139 73.3180 30424.9319 77.5981 145.8145
TCL: Running FEP window  14: Lambda1 0.65   Lambda2 0.7000000000000001 [dLambda 0.050000000000000044]
TCL: Setting parameter firsttimestep to 0
TCL: Setting parameter alchLambda to 0.65
Info: NONBONDED TABLE R-SQUARED SPACING: 0.0625
Info: NONBONDED TABLE SIZE: 705 POINTS
TCL: Setting parameter alchLambda2 to 0.7000000000000001
Info: NONBONDED TABLE R-SQUARED SPACING: 0.0625
Info: NONBONDED TABLE SIZE: 705 POINTS
TCL: Running for 1500000 steps
ETITLE: TS BOND ANGLE DIHED IMPRP ELECT VDW BOUNDARY MISC KINETIC TOTAL TEMP POTENTIAL TOTALAVG TEMPAVG PRESSURE GPRESSURE VOLUME PRESSAVG GPRESSAVG
ENERGY: 0 0.7611 11.9810 9.2918 0.0000 -10692.3420 1413.2205 0.0000 0.0000 1734.5233 -7522.5643 292.3148 -9257.0876 -7522.5643 292.3148 17.1976 91.7944 30424.9319 17.1976 91.7944
ENERGY: 300000 1.6944 12.6334 5.8215 0.0000 -10782.3872 1446.0326 0.0000 0.0000 1780.9890 -7535.2163 300.1455 -9316.2053 -7511.2800 299.9242 -93.6887 -87.8777 30605.2706 400.2168 473.4781
ENERGY: 600000 0.8639 14.3381 6.7307 0.0000 -10603.5393 1351.7725 0.0000 0.0000 1792.9316 -7436.9026 302.1581 -9229.8342 -7522.9479 300.5530 -661.9783 -556.9462 30901.7295 -40.4425 40.5356
ENERGY: 900000 1.4005 9.4520 9.6536 0.0000 -10608.2985 1334.5161 0.0000 0.0000 1730.6442 -7522.6321 291.6610 -9253.2763 -7534.1699 298.0504 -804.2239 -754.1763 30769.0334 -124.3558 -60.8848
ENERGY: 1200000 2.1439 10.4501 5.5256 0.0000 -10849.3445 1550.5928 0.0000 0.0000 1774.5379 -7506.0942 299.0583 -9280.6321 -7527.7664 298.3618 591.0211 681.0450 31084.4487 -184.7887 -124.2092
ENERGY: 1500000 2.0254 10.3611 6.6395 0.0000 -10785.1594 1387.6018 0.0000 0.0000 1810.0413 -7568.4903 305.0416 -9378.5316 -7528.2011 298.6280 -421.6022 -393.4844 30250.5470 -177.9415 -113.1558
TCL: Running FEP window  15: Lambda1 0.7000000000000001 Lambda2 0.7500000000000001 [dLambda 0.050000000000000044]
TCL: Setting parameter firsttimestep to 0
TCL: Setting parameter alchLambda to 0.7000000000000001
Info: NONBONDED TABLE R-SQUARED SPACING: 0.0625
Info: NONBONDED TABLE SIZE: 705 POINTS
TCL: Setting parameter alchLambda2 to 0.7500000000000001
Info: NONBONDED TABLE R-SQUARED SPACING: 0.0625
Info: NONBONDED TABLE SIZE: 705 POINTS
TCL: Running for 1500000 steps
ETITLE: TS BOND ANGLE DIHED IMPRP ELECT VDW BOUNDARY MISC KINETIC TOTAL TEMP POTENTIAL TOTALAVG TEMPAVG PRESSURE GPRESSURE VOLUME PRESSAVG GPRESSAVG
ENERGY: 0 2.0254 10.3611 6.6395 0.0000 -10785.0143 1387.3180 0.0000 0.0000 1809.1408 -7569.5295 304.8898 -9378.6703 -7569.5295 304.8898 -471.5104 -384.7900 30250.5470 -471.5104 -384.7900
ENERGY: 300000 0.8737 8.7759 6.3227 0.0000 -10785.4336 1492.6981 0.0000 0.0000 1791.1409 -7485.6224 301.8564 -9276.7633 -7536.4412 301.4473 601.5294 683.5404 30388.4067 63.4896 143.6121
ENERGY: 600000 3.0828 7.2362 7.1704 0.0000 -10679.0579 1405.0952 0.0000 0.0000 1851.0571 -7405.4163 311.9539 -9256.4734 -7529.1928 302.9144 -72.0145 -35.5036 30650.2828 -166.8593 -99.7968
ENERGY: 900000 0.6751 7.0641 5.9658 0.0000 -10677.2367 1411.8763 0.0000 0.0000 1806.3215 -7445.3339 304.4147 -9251.6554 -7512.8160 302.4351 -238.5581 -152.3181 30951.2567 -121.6995 -64.1544
ENERGY: 1200000 0.6969 12.7703 7.1036 0.0000 -10756.1612 1457.7560 0.0000 0.0000 1790.2544 -7487.5801 301.7070 -9277.8345 -7507.3762 302.7455 -5.5155 39.9404 30859.1179 -151.5072 -99.2817
ENERGY: 1500000 2.6984 7.2075 5.8352 0.0000 -10759.9363 1448.5655 0.0000 0.0000 1723.6072 -7572.0225 290.4751 -9295.6297 -7502.3692 301.8081 -161.4516 -106.7973 30882.3726 -162.0474 -108.5484
TCL: Running FEP window  16: Lambda1 0.7500000000000001 Lambda2 0.8000000000000002 [dLambda 0.050000000000000044]
TCL: Setting parameter firsttimestep to 0
TCL: Setting parameter alchLambda to 0.7500000000000001
Info: NONBONDED TABLE R-SQUARED SPACING: 0.0625
Info: NONBONDED TABLE SIZE: 705 POINTS
TCL: Setting parameter alchLambda2 to 0.8000000000000002
Info: NONBONDED TABLE R-SQUARED SPACING: 0.0625
Info: NONBONDED TABLE SIZE: 705 POINTS
TCL: Running for 1500000 steps
ETITLE: TS BOND ANGLE DIHED IMPRP ELECT VDW BOUNDARY MISC KINETIC TOTAL TEMP POTENTIAL TOTALAVG TEMPAVG PRESSURE GPRESSURE VOLUME PRESSAVG GPRESSAVG
ENERGY: 0 2.6984 7.2075 5.8352 0.0000 -10759.9186 1448.6333 0.0000 0.0000 1722.7047 -7572.8395 290.3230 -9295.5442 -7572.8395 290.3230 -194.4617 -97.6988 30882.3726 -194.4617 -97.6988
ENERGY: 300000 1.8061 11.3289 6.1167 0.0000 -10810.9471 1467.8936 0.0000 0.0000 1750.3161 -7573.4856 294.9763 -9323.8017 -7547.9628 294.8280 84.8328 175.1333 30754.8677 -298.4756 -221.8196
ENERGY: 600000 2.2757 11.8295 7.5775 0.0000 -10821.6427 1506.1484 0.0000 0.0000 1839.1548 -7454.6568 309.9480 -9293.8116 -7527.8970 298.6868 662.5703 718.3637 30492.0614 -16.4523 46.7936
ENERGY: 900000 1.9734 9.3763 6.4952 0.0000 -10801.5162 1477.4008 0.0000 0.0000 1768.7509 -7537.5196 298.0830 -9306.2705 -7526.7695 297.6917 438.7469 459.0486 30135.7704 -103.5022 -39.3585
ENERGY: 1200000 2.3307 10.5292 7.5374 0.0000 -10655.7518 1421.5746 0.0000 0.0000 1823.4002 -7390.3796 307.2929 -9213.7798 -7519.5165 297.7245 -320.2726 -239.6592 31325.8418 -151.1994 -93.9856
ENERGY: 1500000 2.0325 7.4330 7.4550 0.0000 -10680.8817 1419.4578 0.0000 0.0000 1803.4596 -7441.0437 303.9324 -9244.5033 -7510.7449 298.3358 -92.2311 -5.9195 31022.0902 -58.7121 -1.9891
TCL: Running FEP window  17: Lambda1 0.8000000000000002 Lambda2 0.8500000000000002 [dLambda 0.050000000000000044]
TCL: Setting parameter firsttimestep to 0
TCL: Setting parameter alchLambda to 0.8000000000000002
Info: NONBONDED TABLE R-SQUARED SPACING: 0.0625
Info: NONBONDED TABLE SIZE: 705 POINTS
TCL: Setting parameter alchLambda2 to 0.8500000000000002
Info: NONBONDED TABLE R-SQUARED SPACING: 0.0625
Info: NONBONDED TABLE SIZE: 705 POINTS
TCL: Running for 1500000 steps
ETITLE: TS BOND ANGLE DIHED IMPRP ELECT VDW BOUNDARY MISC KINETIC TOTAL TEMP POTENTIAL TOTALAVG TEMPAVG PRESSURE GPRESSURE VOLUME PRESSAVG GPRESSAVG
ENERGY: 0 2.0325 7.4330 7.4550 0.0000 -10680.7867 1418.9993 0.0000 0.0000 1802.5953 -7442.2716 303.7867 -9244.8668 -7442.2716 303.7867 -79.0651 -0.7874 31022.0902 -79.0651 -0.7874
ENERGY: 300000 1.4068 8.3482 7.3747 0.0000 -10848.4657 1517.4176 0.0000 0.0000 1786.4395 -7527.4789 301.0640 -9313.9184 -7511.0583 297.5478 636.5630 685.5085 30391.5434 339.2216 383.8579
ENERGY: 600000 3.6431 11.0580 7.1004 0.0000 -10786.2207 1465.2526 0.0000 0.0000 1814.9718 -7484.1948 305.8725 -9299.1666 -7511.1884 300.6544 110.8419 165.8492 30717.2367 217.5420 265.7682
ENERGY: 900000 1.0973 11.1080 5.5634 0.0000 -10888.0188 1513.7076 0.0000 0.0000 1791.2740 -7565.2684 301.8788 -9356.5424 -7511.4017 300.6521 525.9821 557.4237 30373.4030 389.7636 436.6124
ENERGY: 1200000 2.4413 9.1458 5.3886 0.0000 -10607.9569 1358.5462 0.0000 0.0000 1775.6260 -7456.8091 299.2417 -9232.4351 -7504.7974 301.1899 -660.2271 -627.7729 31481.4105 226.5383 275.5245
ENERGY: 1500000 2.6658 13.2205 8.4323 0.0000 -10655.1512 1417.3772 0.0000 0.0000 1810.5206 -7402.9347 305.1224 -9213.4553 -7506.0861 301.4670 -114.8273 -62.1625 31290.7914 193.5019 241.4395
TCL: Running FEP window  18: Lambda1 0.8500000000000002 Lambda2 0.9000000000000002 [dLambda 0.050000000000000044]
TCL: Setting parameter firsttimestep to 0
TCL: Setting parameter alchLambda to 0.8500000000000002
Info: NONBONDED TABLE R-SQUARED SPACING: 0.0625
Info: NONBONDED TABLE SIZE: 705 POINTS
TCL: Setting parameter alchLambda2 to 0.9000000000000002
Info: NONBONDED TABLE R-SQUARED SPACING: 0.0625
Info: NONBONDED TABLE SIZE: 705 POINTS
TCL: Running for 1500000 steps
ETITLE: TS BOND ANGLE DIHED IMPRP ELECT VDW BOUNDARY MISC KINETIC TOTAL TEMP POTENTIAL TOTALAVG TEMPAVG PRESSURE GPRESSURE VOLUME PRESSAVG GPRESSAVG
ENERGY: 0 2.6658 13.2205 8.4323 0.0000 -10655.3144 1417.0329 0.0000 0.0000 1809.6333 -7404.3296 304.9728 -9213.9628 -7404.3296 304.9728 -132.7314 -52.3473 31290.7914 -132.7314 -52.3473
ENERGY: 300000 3.8691 11.2917 6.2280 0.0000 -10913.1012 1488.5243 0.0000 0.0000 1769.6127 -7633.5754 298.2283 -9403.1881 -7529.8885 301.6126 -11.4094 -1.7069 30591.9421 4.3877 48.7014
ENERGY: 600000 1.4208 10.8778 5.4910 0.0000 -10789.6766 1482.0891 0.0000 0.0000 1751.4485 -7538.3494 295.1671 -9289.7979 -7517.3851 299.5778 275.7938 339.7883 30626.6447 8.6576 66.5717
ENERGY: 900000 4.1688 7.7811 4.6560 0.0000 -10791.9653 1464.3154 0.0000 0.0000 1794.3652 -7516.6787 302.3998 -9311.0439 -7507.1257 300.8829 -139.9533 -113.6334 31041.2099 72.9843 122.2156
ENERGY: 1200000 2.5969 12.6156 8.1988 0.0000 -10826.4285 1437.9782 0.0000 0.0000 1810.6987 -7554.3402 305.1524 -9365.0389 -7516.6050 301.0133 -349.1490 -215.5525 30796.8645 2.4535 62.6466
ENERGY: 1500000 1.3776 8.3106 6.5909 0.0000 -10671.2536 1368.6925 0.0000 0.0000 1802.3777 -7483.9043 303.7501 -9286.2820 -7515.7047 301.1789 -526.4003 -444.2697 30695.4484 -30.4957 28.6127
TCL: Running FEP window  19: Lambda1 0.9000000000000002 Lambda2 0.9500000000000003 [dLambda 0.050000000000000044]
TCL: Setting parameter firsttimestep to 0
TCL: Setting parameter alchLambda to 0.9000000000000002
Info: NONBONDED TABLE R-SQUARED SPACING: 0.0625
Info: NONBONDED TABLE SIZE: 705 POINTS
TCL: Setting parameter alchLambda2 to 0.9500000000000003
Info: NONBONDED TABLE R-SQUARED SPACING: 0.0625
Info: NONBONDED TABLE SIZE: 705 POINTS
TCL: Running for 1500000 steps
ETITLE: TS BOND ANGLE DIHED IMPRP ELECT VDW BOUNDARY MISC KINETIC TOTAL TEMP POTENTIAL TOTALAVG TEMPAVG PRESSURE GPRESSURE VOLUME PRESSAVG GPRESSAVG
ENERGY: 0 1.3776 8.3106 6.5909 0.0000 -10671.2912 1368.3697 0.0000 0.0000 1801.4832 -7485.1593 303.5993 -9286.6425 -7485.1593 303.5993 -505.7878 -433.9589 30695.4484 -505.7878 -433.9589
ENERGY: 300000 1.8225 12.6670 9.4187 0.0000 -10656.7358 1375.8624 0.0000 0.0000 1770.8717 -7486.0935 298.4404 -9256.9652 -7522.7080 299.9937 -606.3938 -508.4966 30882.2096 -492.4827 -419.0063
ENERGY: 600000 1.7384 13.3064 11.0170 0.0000 -10708.0831 1412.4150 0.0000 0.0000 1812.6240 -7456.9824 305.4769 -9269.6063 -7504.4315 302.7238 -77.5943 -64.6810 30703.0153 -196.4420 -136.8625
ENERGY: 900000 6.1460 11.7631 6.2135 0.0000 -10786.5909 1496.8316 0.0000 0.0000 1786.0676 -7479.5690 301.0014 -9265.6366 -7488.9294 302.0780 163.0618 273.2331 30944.9203 -132.4497 -62.4500
ENERGY: 1200000 1.9287 11.3149 8.3598 0.0000 -10733.2059 1460.1248 0.0000 0.0000 1763.0193 -7488.4584 297.1171 -9251.4778 -7494.5901 301.9553 332.9974 375.4102 30743.1533 -50.7005 20.6101
ENERGY: 1500000 2.5990 13.7298 6.4907 0.0000 -10741.1411 1400.7147 0.0000 0.0000 1735.5027 -7582.1041 292.4798 -9317.6068 -7503.9034 301.3252 -414.7506 -352.4462 30747.3659 -56.5385 13.6067
TCL: Running FEP window  20: Lambda1 0.9500000000000003 Lambda2 1.0    [dLambda 0.04999999999999971]
TCL: Setting parameter firsttimestep to 0
TCL: Setting parameter alchLambda to 0.9500000000000003
Info: NONBONDED TABLE R-SQUARED SPACING: 0.0625
Info: NONBONDED TABLE SIZE: 705 POINTS
TCL: Setting parameter alchLambda2 to 1.0
Info: NONBONDED TABLE R-SQUARED SPACING: 0.0625
Info: NONBONDED TABLE SIZE: 705 POINTS
TCL: Running for 1500000 steps
ETITLE: TS BOND ANGLE DIHED IMPRP ELECT VDW BOUNDARY MISC KINETIC TOTAL TEMP POTENTIAL TOTALAVG TEMPAVG PRESSURE GPRESSURE VOLUME PRESSAVG GPRESSAVG
ENERGY: 0 2.5990 13.7298 6.4907 0.0000 -10741.4123 1400.9298 0.0000 0.0000 1734.6220 -7583.0409 292.3314 -9317.6629 -7583.0409 292.3314 -401.2667 -335.9763 30747.3659 -401.2667 -335.9763
ENERGY: 300000 2.1666 10.0706 7.1367 0.0000 -10696.5872 1376.0018 0.0000 0.0000 1823.1180 -7478.0935 307.2454 -9301.2115 -7501.6752 300.0803 -564.0887 -489.3738 30887.3666 -278.3548 -209.0597
ENERGY: 600000 1.8877 8.0115 8.4481 0.0000 -10629.6589 1368.8188 0.0000 0.0000 1735.9709 -7506.5220 292.5587 -9242.4929 -7517.5291 299.9402 -625.2374 -551.0180 31151.7356 -251.4248 -181.6605
ENERGY: 900000 1.0475 10.2791 5.8183 0.0000 -10786.3221 1427.8706 0.0000 0.0000 1771.7463 -7569.5604 298.5878 -9341.3067 -7518.5853 300.8088 -84.9551 -22.8408 30430.9791 -273.1690 -198.3040
ENERGY: 1200000 3.4581 15.7831 5.3199 0.0000 -10835.7398 1447.2027 0.0000 0.0000 1761.4297 -7602.5462 296.8492 -9363.9759 -7538.3615 299.6351 -219.7465 -205.9280 30753.0874 -238.6679 -166.7471
ENERGY: 1500000 1.9137 13.6200 4.5907 0.0000 -10680.9021 1433.1995 0.0000 0.0000 1807.5876 -7419.9905 304.6281 -9227.5781 -7533.2299 299.5958 117.6083 183.7737 31254.8590 -185.2229 -122.7753
TCL: Exiting due to exit command.
