Info: SIMULATION PARAMETERS:
Info: TIMESTEP               2
Info: NUMBER OF STEPS        0
Info: STEPS PER CYCLE        10
Info: PERIODIC CELL BASIS 1  30.9887 0 0
Info: PERIODIC CELL BASIS 2  0 29.5874 0
Info: PERIODIC CELL BASIS 3  0 0 32.4032
Info: PERIODIC CELL CENTER   0 0 0
Info: WRAPPING WATERS AROUND PERIODIC BOUNDARIES ON OUTPUT.
Info: WRAPPING ALL CLUSTERS AROUND PERIODIC BOUNDARIES ON OUTPUT.
Info: FIRST LDB TIMESTEP     50
Info: LAST LDB TIMESTEP     -1
Info: HOM BACKGROUND SCALING 1
Info: PME BACKGROUND SCALING 1
Info: MIN ATOMS PER PATCH    40
Info: EMPTY PATCH LOAD       40 ATOMS
Info: VELOCITY FILE          mobley_819018_equil.vel
Info: CENTER OF MASS MOVING INITIALLY? NO
Info: DIELECTRIC             1
Info: EXCLUDE                SCALED ONE-FOUR
Info: 1-4 ELECTROSTATICS SCALED BY 0.833333
Info: MODIFIED 1-4 VDW PARAMETERS WILL BE USED
Info: DCD FILENAME           mobley_819018_prod.dcd
Info: DCD FREQUENCY          100000
Info: DCD FIRST STEP         100000
Info: DCD FILE WILL CONTAIN UNIT CELL DATA
Info: XST FILENAME           mobley_819018_prod.xst
Info: XST FREQUENCY          100000
Info: NO VELOCITY DCD OUTPUT
Info: NO FORCE DCD OUTPUT
Info: OUTPUT FILENAME        mobley_819018_prod
Info: BINARY OUTPUT FILES WILL BE USED
Info: RESTART FILENAME       mobley_819018_prod.restart
Info: RESTART FREQUENCY      100000
Info: BINARY RESTART FILES WILL BE USED
Info: CUTOFF                 9
Info: PAIRLIST DISTANCE      11
Info: PAIRLIST SHRINK RATE   0.01
Info: PAIRLIST GROW RATE     0.01
Info: PAIRLIST TRIGGER       0.3
Info: PAIRLISTS PER CYCLE    2
Info: PAIRLISTS ENABLED
Info: MARGIN                 2
Info: HYDROGEN GROUP CUTOFF  2.5
Info: PATCH DIMENSION        15.5
Info: ENERGY OUTPUT STEPS    100000
Info: ENERGY EVALUATION STEPS    100000
Info: OUTPUT ENERGY PRECISION 4
Info: CROSSTERM ENERGY INCLUDED IN DIHEDRAL
Info: TIMING OUTPUT STEPS    1000000
Info: PRESSURE OUTPUT STEPS  100000
Info: ALCHEMICAL FEP ON
Info: FEP CURRENT LAMBDA VALUE     1
Info: FEP COMPARISON LAMBDA VALUE  0.95
Info: FEP INTRA-ALCHEMICAL NON-BONDED INTERACTIONS WILL BE RETAINED
Info: FEP INTRA-ALCHEMICAL BONDED INTERACTIONS WILL BE RETAINED
Info: FEP VDW SHIFTING COEFFICIENT 5
Info: FEP ELEC. ACTIVE FOR ANNIHILATED PARTICLES BETWEEN LAMBDA = 0 AND LAMBDA = 0.5
Info: FEP ELEC. ACTIVE FOR EXNIHILATED PARTICLES BETWEEN LAMBDA = 0.5 AND LAMBDA = 1
Info: FEP VDW ACTIVE FOR ANNIHILATED PARTICLES BETWEEN LAMBDA = 0 AND LAMBDA = 1
Info: FEP VDW ACTIVE FOR EXNIHILATED PARTICLES BETWEEN LAMBDA = 0 AND LAMBDA = 1
Info: FEP BOND ACTIVE FOR ANNIHILATED PARTICLES BETWEEN LAMBDA = 1 AND LAMBDA = 1
Info: FEP BOND ACTIVE FOR EXNIHILATED PARTICLES BETWEEN LAMBDA = 0 AND LAMBDA = 0
Info: LANGEVIN DYNAMICS ACTIVE
Info: LANGEVIN TEMPERATURE   300
Info: LANGEVIN USING BBK INTEGRATOR
Info: LANGEVIN DAMPING COEFFICIENT IS 1 INVERSE PS
Info: LANGEVIN DYNAMICS APPLIED TO HYDROGENS
Info: LANGEVIN PISTON PRESSURE CONTROL ACTIVE
Info:        TARGET PRESSURE IS 1.01325 BAR
Info:     OSCILLATION PERIOD IS 50 FS
Info:             DECAY TIME IS 25 FS
Info:     PISTON TEMPERATURE IS 300 K
Info:       PRESSURE CONTROL IS GROUP-BASED
Info:    INITIAL STRAIN RATE IS 0.00031969 0.00031969 0.00031969
Info:       CELL FLUCTUATION IS ISOTROPIC
Info: PARTICLE MESH EWALD (PME) ACTIVE
Info: PME TOLERANCE               1e-06
Info: PME EWALD COEFFICIENT       0.348832
Info: PME INTERPOLATION ORDER     4
Info: PME GRID DIMENSIONS         32 32 36
Info: PME MAXIMUM GRID SPACING    1
Info: PME CALCULATION WILL BE PERFORMED ON GPU
Info: FULL ELECTROSTATIC EVALUATION FREQUENCY      2
Info: USING VERLET I (r-RESPA) MTS SCHEME.
Info: C1 SPLITTING OF LONG RANGE ELECTROSTATICS
Info: PLACING ATOMS IN PATCHES BY HYDROGEN GROUPS
Info: RIGID BONDS TO HYDROGEN : ALL
Info:         ERROR TOLERANCE : 1e-08
Info:          MAX ITERATIONS : 100
Info: RIGID WATER USING SETTLE ALGORITHM
Info: RANDOM NUMBER SEED     1743993053
Info: USE HYDROGEN BONDS?    NO
Info: Using AMBER format force field!
Info: AMBER PARM FILE        mobley_819018.prmtop
Info: COORDINATE PDB         mobley_819018.pdb
Info: Exclusions will be read from PARM file!
Info: SCNB (VDW SCALING)     2
Info: USING ARITHMETIC MEAN TO COMBINE L-J SIGMA PARAMETERS
Info: BINARY COORDINATES     mobley_819018_equil.coor
Info: SUMMARY OF PARAMETERS:
Info: 10 BONDS
Info: 13 ANGLES
Info:   13 HARMONIC
Info:   0 COSINE-BASED
Info: 9 DIHEDRAL
Info: 0 IMPROPER
Info: 0 CROSSTERM
Info: 0 VDW
Info: 36 VDW_PAIRS
Info: 0 NBTHOLE_PAIRS
Info: To read alchdata from file: mobley_819018.pdb
Info: To read alchflag data from column: 5
Info: STRUCTURE SUMMARY:
Info: 2900 ATOMS
Info: 2899 BONDS
Info: 49 ANGLES
Info: 90 DIHEDRALS
Info: 0 IMPROPERS
Info: 0 CROSSTERMS
Info: 3004 EXCLUSIONS
Info: 2889 RIGID BONDS
Info: ALCH: 0 ATOMS TO DISAPPEAR IN FINAL STATE
Info: ALCH: 29 ATOMS TO APPEAR IN FINAL STATE
Info: 5811 DEGREES OF FREEDOM
Info: 968 HYDROGEN GROUPS
Info: 4 ATOMS IN LARGEST HYDROGEN GROUP
Info: 968 MIGRATION GROUPS
Info: 4 ATOMS IN LARGEST MIGRATION GROUP
Info: TOTAL MASS = 17395.6 amu
Info: TOTAL CHARGE = 3.72529e-09 e
Info: MASS DENSITY = 0.972299 g/cm^3
Info: ATOM DENSITY = 0.0976113 atoms/A^3
Info: ADDED 0 IMPLICIT EXCLUSIONS
Info: NONBONDED TABLE R-SQUARED SPACING: 0.0625
Info: NONBONDED TABLE SIZE: 705 POINTS
Info: REMOVING COM VELOCITY 0.286517 -0.144279 0.0826789
Info: Use 3D box decompostion in PME FFT.
Info: Updated CUDA force table with 4096 elements.
Info: Updated CUDA LJ table with 8 x 8 elements.
Info: Found 30 unique exclusion lists needing 120 bytes
TCL: Running for 1500000 steps
ETITLE: TS BOND ANGLE DIHED IMPRP ELECT VDW BOUNDARY MISC KINETIC TOTAL TEMP POTENTIAL TOTALAVG TEMPAVG PRESSURE GPRESSURE VOLUME PRESSAVG GPRESSAVG
ENERGY: 0 2.0970 13.5408 26.9187 0.0000 -10460.0949 1372.4520 0.0000 0.0000 1721.6775 -7323.4089 298.1888 -9045.0864 -7323.4089 298.1888 -119.9493 -55.0872 29709.6742 -119.9493 -55.0872
ENERGY: 300000 2.6106 22.7781 32.1801 0.0000 -10469.4410 1403.9928 0.0000 0.0000 1734.3579 -7273.5214 300.3850 -9007.8793 -7296.0822 300.2629 163.3561 237.1081 29588.2891 -133.7536 -59.9332
ENERGY: 600000 1.8991 16.8452 28.6972 0.0000 -10417.7429 1376.9539 0.0000 0.0000 1696.3342 -7297.0132 293.7994 -8993.3475 -7286.3805 301.0604 -173.5692 -56.8372 30028.0388 -191.9454 -122.5712
ENERGY: 900000 5.9173 12.6768 26.9242 0.0000 -10563.2845 1503.7182 0.0000 0.0000 1757.7563 -7256.2917 304.4375 -9014.0480 -7290.1533 300.3128 1140.8552 1234.9304 29275.3096 49.8345 120.3483
ENERGY: 1200000 3.1643 14.9778 26.0460 0.0000 -10481.2679 1354.7038 0.0000 0.0000 1653.0095 -7429.3664 286.2957 -9082.3760 -7304.9069 299.2651 -399.0025 -391.4689 29796.8728 25.8112 85.9711
ENERGY: 1500000 0.9271 11.0480 28.1695 0.0000 -10449.6470 1380.9099 0.0000 0.0000 1781.2053 -7247.3872 308.4988 -9028.5925 -7306.9664 299.3114 -77.8672 -27.3492 29696.0131 -11.9674 48.1571
TCL: Running FEP window   2: Lambda1 0.95   Lambda2 0.8999999999999999 [dLambda -0.050000000000000044]
TCL: Setting parameter firsttimestep to 0
TCL: Setting parameter alchLambda to 0.95
Info: NONBONDED TABLE R-SQUARED SPACING: 0.0625
Info: NONBONDED TABLE SIZE: 705 POINTS
TCL: Setting parameter alchLambda2 to 0.8999999999999999
Info: NONBONDED TABLE R-SQUARED SPACING: 0.0625
Info: NONBONDED TABLE SIZE: 705 POINTS
TCL: Running for 1500000 steps
ETITLE: TS BOND ANGLE DIHED IMPRP ELECT VDW BOUNDARY MISC KINETIC TOTAL TEMP POTENTIAL TOTALAVG TEMPAVG PRESSURE GPRESSURE VOLUME PRESSAVG GPRESSAVG
ENERGY: 0 0.9271 11.0480 28.1695 0.0000 -10448.1519 1380.0830 0.0000 0.0000 1780.3253 -7247.5990 308.3464 -9027.9243 -7247.5990 308.3464 -140.5799 -51.3396 29696.0131 -140.5799 -51.3396
ENERGY: 300000 3.0058 11.6202 26.5781 0.0000 -10420.3696 1353.8510 0.0000 0.0000 1782.6825 -7242.6319 308.7546 -9025.3144 -7253.3401 311.1952 -148.5442 -41.4444 29376.6898 75.4885 183.4280
ENERGY: 600000 3.2327 9.7425 27.0736 0.0000 -10302.1610 1295.2383 0.0000 0.0000 1792.6915 -7174.1824 310.4882 -8966.8739 -7231.5562 309.0767 -814.9599 -790.2384 29984.2669 26.3632 115.9022
ENERGY: 900000 3.7338 7.7450 29.0247 0.0000 -10475.6191 1390.3768 0.0000 0.0000 1791.1476 -7253.5911 310.2208 -9044.7387 -7232.7101 308.3565 -62.6917 4.6528 29555.8228 -51.1525 26.8045
ENERGY: 1200000 1.3632 17.3471 26.6253 0.0000 -10544.9645 1402.5227 0.0000 0.0000 1756.8887 -7340.2175 304.2873 -9097.1062 -7247.3640 307.0272 -24.0924 9.6267 29761.0284 -0.1613 78.2567
ENERGY: 1500000 1.0301 9.0341 25.6898 0.0000 -10625.9292 1491.1347 0.0000 0.0000 1742.6415 -7356.3990 301.8197 -9099.0405 -7264.6854 305.1717 399.0408 478.4450 29957.0017 -25.2516 55.1535
TCL: Running FEP window   3: Lambda1 0.8999999999999999 Lambda2 0.8499999999999999 [dLambda -0.050000000000000044]
TCL: Setting parameter firsttimestep to 0
TCL: Setting parameter alchLambda to 0.8999999999999999
Info: NONBONDED TABLE R-SQUARED SPACING: 0.0625
Info: NONBONDED TABLE SIZE: 705 POINTS
TCL: Setting parameter alchLambda2 to 0.8499999999999999
Info: NONBONDED TABLE R-SQUARED SPACING: 0.0625
Info: NONBONDED TABLE SIZE: 705 POINTS
TCL: Running for 1500000 steps
ETITLE: TS BOND ANGLE DIHED IMPRP ELECT VDW BOUNDARY MISC KINETIC TOTAL TEMP POTENTIAL TOTALAVG TEMPAVG PRESSURE GPRESSURE VOLUME PRESSAVG GPRESSAVG
ENERGY: 0 1.0301 9.0342 25.6898 0.0000 -10623.8619 1490.1098 0.0000 0.0000 1741.7794 -7356.2186 301.6704 -9097.9980 -7356.2186 301.6704 367.6487 454.5493 29957.0017 367.6487 454.5493
ENERGY: 300000 1.3084 14.6160 25.7587 0.0000 -10351.6855 1350.1171 0.0000 0.0000 1777.8088 -7182.0766 307.9106 -8959.8854 -7262.6886 302.9244 -173.6649 -199.4287 30325.9782 44.6826 87.9784
ENERGY: 600000 3.4475 10.9660 28.0890 0.0000 -10401.1994 1309.3648 0.0000 0.0000 1723.6394 -7325.6926 298.5286 -9049.3320 -7265.1002 302.4050 -883.1658 -859.2257 29678.1601 -114.5543 -69.3979
ENERGY: 900000 2.5200 17.3522 27.0738 0.0000 -10418.8948 1385.6320 0.0000 0.0000 1714.7767 -7271.5402 296.9936 -8986.3168 -7275.0082 301.2494 -130.4698 -75.5298 30014.4407 -172.2443 -116.5868
ENERGY: 1200000 2.6203 11.4593 27.7119 0.0000 -10468.9255 1333.9564 0.0000 0.0000 1686.1158 -7407.0618 292.0296 -9093.1776 -7268.6511 300.7394 -981.0582 -844.5099 29860.4725 -216.7469 -157.1931
ENERGY: 1500000 5.4802 12.0736 31.7720 0.0000 -10372.1531 1397.1004 0.0000 0.0000 1733.2236 -7192.5034 300.1885 -8925.7270 -7267.7797 300.8747 144.4274 175.2212 30149.8699 -187.3008 -130.7960
TCL: Running FEP window   4: Lambda1 0.8499999999999999 Lambda2 0.7999999999999998 [dLambda -0.050000000000000044]
TCL: Setting parameter firsttimestep to 0
TCL: Setting parameter alchLambda to 0.8499999999999999
Info: NONBONDED TABLE R-SQUARED SPACING: 0.0625
Info: NONBONDED TABLE SIZE: 705 POINTS
TCL: Setting parameter alchLambda2 to 0.7999999999999998
Info: NONBONDED TABLE R-SQUARED SPACING: 0.0625
Info: NONBONDED TABLE SIZE: 705 POINTS
TCL: Running for 1500000 steps
ETITLE: TS BOND ANGLE DIHED IMPRP ELECT VDW BOUNDARY MISC KINETIC TOTAL TEMP POTENTIAL TOTALAVG TEMPAVG PRESSURE GPRESSURE VOLUME PRESSAVG GPRESSAVG
ENERGY: 0 5.4802 12.0736 31.7720 0.0000 -10371.0728 1397.8807 0.0000 0.0000 1732.3906 -7191.4757 300.0443 -8923.8663 -7191.4757 300.0443 100.6137 178.4048 30149.8699 100.6137 178.4048
ENERGY: 300000 4.4637 14.6947 25.4141 0.0000 -10500.6573 1426.9146 0.0000 0.0000 1806.4033 -7222.7668 312.8630 -9029.1701 -7230.1831 304.4114 61.8247 131.8119 30253.6188 121.2702 190.3418
ENERGY: 600000 2.6926 12.0026 27.9347 0.0000 -10546.9046 1441.1982 0.0000 0.0000 1758.6514 -7304.4251 304.5925 -9063.0765 -7258.6140 303.7226 551.0966 609.1181 28966.9676 180.6657 242.5044
ENERGY: 900000 2.6572 11.2396 28.5329 0.0000 -10496.3533 1408.6734 0.0000 0.0000 1747.8432 -7297.4070 302.7206 -9045.2502 -7259.0813 303.8778 3.4812 44.5325 29952.5743 108.0589 159.8016
ENERGY: 1200000 2.7376 13.5465 26.3818 0.0000 -10475.6483 1428.8433 0.0000 0.0000 1741.1419 -7262.9972 301.5600 -9004.1391 -7261.0224 303.0530 54.1793 152.0250 29880.0729 149.8571 203.9883
ENERGY: 1500000 2.2003 13.9710 29.2105 0.0000 -10522.9727 1451.8484 0.0000 0.0000 1730.7726 -7294.9699 299.7640 -9025.7425 -7267.4424 302.1634 840.8892 868.3537 29052.8167 219.1688 272.3040
TCL: Running FEP window   5: Lambda1 0.7999999999999998 Lambda2 0.7499999999999998 [dLambda -0.050000000000000044]
TCL: Setting parameter firsttimestep to 0
TCL: Setting parameter alchLambda to 0.7999999999999998
Info: NONBONDED TABLE R-SQUARED SPACING: 0.0625
Info: NONBONDED TABLE SIZE: 705 POINTS
TCL: Setting parameter alchLambda2 to 0.7499999999999998
Info: NONBONDED TABLE R-SQUARED SPACING: 0.0625
Info: NONBONDED TABLE SIZE: 705 POINTS
TCL: Running for 1500000 steps
ETITLE: TS BOND ANGLE DIHED IMPRP ELECT VDW BOUNDARY MISC KINETIC TOTAL TEMP POTENTIAL TOTALAVG TEMPAVG PRESSURE GPRESSURE VOLUME PRESSAVG GPRESSAVG
ENERGY: 0 2.2003 13.9710 29.2105 0.0000 -10522.6250 1451.7611 0.0000 0.0000 1729.8961 -7295.5859 299.6122 -9025.4820 -7295.5859 299.6122 765.9914 845.2539 29052.8167 765.9914 845.2539
ENERGY: 300000 2.0439 14.5252 26.6030 0.0000 -10567.7269 1426.5649 0.0000 0.0000 1760.5916 -7337.3982 304.9286 -9097.9899 -7329.2259 300.8813 326.9401 349.6395 29337.6697 357.7941 411.0073
ENERGY: 600000 4.1887 10.6562 28.5441 0.0000 -10445.3236 1365.3719 0.0000 0.0000 1793.9466 -7242.6161 310.7056 -9036.5627 -7301.7744 301.6364 -463.4760 -441.4306 29970.1902 115.3095 166.2468
ENERGY: 900000 2.5820 12.9256 29.1607 0.0000 -10477.2592 1404.0857 0.0000 0.0000 1730.9301 -7297.5751 299.7913 -9028.5053 -7300.7238 299.6438 17.5646 86.1528 29747.1390 16.2337 67.4780
ENERGY: 1200000 1.3201 15.2104 25.8253 0.0000 -10512.1662 1431.5383 0.0000 0.0000 1719.5969 -7318.6750 297.8284 -9038.2719 -7294.8378 300.0299 312.9220 373.1639 29497.0287 51.7106 102.8273
ENERGY: 1500000 1.9559 8.6319 30.2513 0.0000 -10412.7919 1325.7067 0.0000 0.0000 1704.6496 -7341.5963 295.2396 -9046.2459 -7294.1337 299.9296 -938.5271 -932.2731 30142.8218 -22.0752 25.3052
TCL: Running FEP window   6: Lambda1 0.7499999999999998 Lambda2 0.6999999999999997 [dLambda -0.050000000000000044]
TCL: Setting parameter firsttimestep to 0
TCL: Setting parameter alchLambda to 0.7499999999999998
Info: NONBONDED TABLE R-SQUARED SPACING: 0.0625
Info: NONBONDED TABLE SIZE: 705 POINTS
TCL: Setting parameter alchLambda2 to 0.6999999999999997
Info: NONBONDED TABLE R-SQUARED SPACING: 0.0625
Info: NONBONDED TABLE SIZE: 705 POINTS
TCL: Running for 1500000 steps
ETITLE: TS BOND ANGLE DIHED IMPRP ELECT VDW BOUNDARY MISC KINETIC TOTAL TEMP POTENTIAL TOTALAVG TEMPAVG PRESSURE GPRESSURE VOLUME PRESSAVG GPRESSAVG
ENERGY: 0 1.9559 8.6319 30.2513 0.0000 -10410.8317 1325.8565 0.0000 0.0000 1703.8236 -7340.3124 295.0966 -9044.1360 -7340.3124 295.0966 -1023.0201 -938.3142 30142.8218 -1023.0201 -938.3142
ENERGY: 300000 2.5337 13.5434 27.6499 0.0000 -10406.9659 1355.5198 0.0000 0.0000 1770.3086 -7237.4105 306.6115 -9007.7191 -7293.1587 300.7613 -430.0905 -476.7464 30193.6380 -379.4853 -367.6315
ENERGY: 600000 8.3111 11.6000 27.0440 0.0000 -10552.8040 1492.6359 0.0000 0.0000 1768.7182 -7244.4946 306.3361 -9013.2128 -7269.0851 300.5983 823.6769 840.8429 29544.6905 -38.3214 0.3079
ENERGY: 900000 7.3340 13.6879 28.2088 0.0000 -10428.1689 1315.3090 0.0000 0.0000 1700.5154 -7363.1137 294.5236 -9063.6291 -7278.0841 299.3643 -987.6883 -985.2332 29776.1834 -193.8350 -150.6332
ENERGY: 1200000 2.4685 14.5763 28.2221 0.0000 -10500.2797 1447.4090 0.0000 0.0000 1724.3183 -7283.2855 298.6462 -9007.6038 -7273.6745 300.3991 432.8659 520.4455 29500.3021 -125.1795 -76.0714
ENERGY: 1500000 2.4481 15.7070 27.1851 0.0000 -10316.2647 1324.0089 0.0000 0.0000 1700.6525 -7246.2630 294.5473 -8946.9155 -7276.2393 299.9730 -62.1070 -50.1912 29484.2979 -94.1519 -48.1976
TCL: Running FEP window   7: Lambda1 0.6999999999999997 Lambda2 0.6499999999999997 [dLambda -0.050000000000000044]
TCL: Setting parameter firsttimestep to 0
TCL: Setting parameter alchLambda to 0.6999999999999997
Info: NONBONDED TABLE R-SQUARED SPACING: 0.0625
Info: NONBONDED TABLE SIZE: 705 POINTS
TCL: Setting parameter alchLambda2 to 0.6499999999999997
Info: NONBONDED TABLE R-SQUARED SPACING: 0.0625
Info: NONBONDED TABLE SIZE: 705 POINTS
TCL: Running for 1500000 steps
ETITLE: TS BOND ANGLE DIHED IMPRP ELECT VDW BOUNDARY MISC KINETIC TOTAL TEMP POTENTIAL TOTALAVG TEMPAVG PRESSURE GPRESSURE VOLUME PRESSAVG GPRESSAVG
ENERGY: 0 2.4481 15.7070 27.1851 0.0000 -10315.5553 1324.3446 0.0000 0.0000 1699.8280 -7246.0425 294.4045 -8945.8705 -7246.0425 294.4045 -121.7847 -55.9705 29484.2979 -121.7847 -55.9705
ENERGY: 300000 5.5436 19.6497 26.9345 0.0000 -10405.2589 1363.9689 0.0000 0.0000 1712.5891 -7276.5731 296.6147 -8989.1623 -7239.7761 298.7797 -443.4234 -427.7154 29865.4503 -489.3151 -417.9435
ENERGY: 600000 3.4056 14.2227 25.3372 0.0000 -10335.7925 1320.4768 0.0000 0.0000 1752.9105 -7219.4398 303.5982 -8972.3503 -7225.7718 299.3697 -484.9073 -446.7566 29949.9629 -269.2967 -214.4385
ENERGY: 900000 6.0700 13.3747 28.4772 0.0000 -10429.8972 1366.3221 0.0000 0.0000 1703.3170 -7312.3363 295.0088 -9015.6532 -7241.1535 299.6650 -645.1027 -558.2999 30220.6862 -257.0709 -193.0702
ENERGY: 1200000 1.3783 15.4570 28.2104 0.0000 -10466.1771 1372.1855 0.0000 0.0000 1732.4349 -7316.5110 300.0519 -9048.9459 -7260.7379 299.1233 -200.6940 -209.2649 29640.6037 -224.4480 -165.1544
ENERGY: 1500000 4.1596 12.3498 27.4950 0.0000 -10325.2607 1327.3552 0.0000 0.0000 1779.8918 -7174.0092 308.2713 -8953.9010 -7261.7802 299.3719 -443.0296 -347.6298 29795.7520 -197.4880 -137.2103
TCL: Running FEP window   8: Lambda1 0.6499999999999997 Lambda2 0.5999999999999996 [dLambda -0.050000000000000044]
TCL: Setting parameter firsttimestep to 0
TCL: Setting parameter alchLambda to 0.6499999999999997
Info: NONBONDED TABLE R-SQUARED SPACING: 0.0625
Info: NONBONDED TABLE SIZE: 705 POINTS
TCL: Setting parameter alchLambda2 to 0.5999999999999996
Info: NONBONDED TABLE R-SQUARED SPACING: 0.0625
Info: NONBONDED TABLE SIZE: 705 POINTS
TCL: Running for 1500000 steps
ETITLE: TS BOND ANGLE DIHED IMPRP ELECT VDW BOUNDARY MISC KINETIC TOTAL TEMP POTENTIAL TOTALAVG TEMPAVG PRESSURE GPRESSURE VOLUME PRESSAVG GPRESSAVG
ENERGY: 0 4.1596 12.3498 27.4950 0.0000 -10325.0426 1328.1893 0.0000 0.0000 1779.0268 -7173.8220 308.1215 -8952.8489 -7173.8220 308.1215 -430.1132 -349.6713 29795.7520 -430.1132 -349.6713
ENERGY: 300000 5.1925 13.5290 24.6118 0.0000 -10336.5187 1353.0304 0.0000 0.0000 1787.5276 -7152.6273 309.5938 -8940.1549 -7225.2767 304.8031 -208.7537 -144.6567 29817.0288 -132.9078 -63.1925
ENERGY: 600000 2.2979 14.2914 29.2603 0.0000 -10584.8120 1511.1104 0.0000 0.0000 1799.7312 -7228.1208 311.7074 -9027.8520 -7241.0234 303.9959 1139.8086 1164.3746 29217.7652 210.4840 268.6691
ENERGY: 900000 5.5929 10.8852 27.4744 0.0000 -10661.3604 1510.1705 0.0000 0.0000 1730.0612 -7377.1761 299.6408 -9107.2373 -7252.4611 303.3764 497.1168 567.3508 29413.3808 169.5765 234.0752
ENERGY: 1200000 5.3793 8.9956 28.4330 0.0000 -10464.0863 1454.7243 0.0000 0.0000 1676.8603 -7289.6938 290.4266 -8966.5541 -7258.4587 301.1138 174.8861 325.8180 30419.7833 230.0941 296.1336
ENERGY: 1500000 3.8159 11.6145 25.1417 0.0000 -10277.7630 1299.7846 0.0000 0.0000 1710.2339 -7227.1725 296.2068 -8937.4063 -7248.5936 301.3531 -679.3913 -693.2966 30202.2273 171.3802 233.1813
TCL: Running FEP window   9: Lambda1 0.5999999999999996 Lambda2 0.5499999999999996 [dLambda -0.050000000000000044]
TCL: Setting parameter firsttimestep to 0
TCL: Setting parameter alchLambda to 0.5999999999999996
Info: NONBONDED TABLE R-SQUARED SPACING: 0.0625
Info: NONBONDED TABLE SIZE: 705 POINTS
TCL: Setting parameter alchLambda2 to 0.5499999999999996
Info: NONBONDED TABLE R-SQUARED SPACING: 0.0625
Info: NONBONDED TABLE SIZE: 705 POINTS
TCL: Running for 1500000 steps
ETITLE: TS BOND ANGLE DIHED IMPRP ELECT VDW BOUNDARY MISC KINETIC TOTAL TEMP POTENTIAL TOTALAVG TEMPAVG PRESSURE GPRESSURE VOLUME PRESSAVG GPRESSAVG
ENERGY: 0 3.8160 11.6144 25.1417 0.0000 -10277.0007 1300.2186 0.0000 0.0000 1709.3765 -7226.8335 296.0583 -8936.2100 -7226.8335 296.0583 -765.4961 -698.9321 30202.2273 -765.4961 -698.9321
ENERGY: 300000 3.0754 10.5700 28.7525 0.0000 -10468.2675 1353.7254 0.0000 0.0000 1702.1361 -7370.0081 294.8043 -9072.1442 -7267.8405 299.9350 -393.6661 -428.8005 29786.4470 -310.1554 -286.2016
ENERGY: 600000 5.6583 18.4999 29.8440 0.0000 -10507.7953 1429.0424 0.0000 0.0000 1745.2255 -7279.5253 302.2672 -9024.7508 -7268.2739 299.6160 188.9320 364.4911 29709.9092 -38.4571 23.7462
ENERGY: 900000 3.3648 15.6948 26.6253 0.0000 -10346.1325 1319.7773 0.0000 0.0000 1695.7830 -7284.8873 293.7039 -8980.6703 -7261.1245 299.9426 -824.3409 -791.9529 30100.0914 -146.9242 -80.4074
ENERGY: 1200000 5.2469 14.4887 29.9456 0.0000 -10487.7373 1388.9967 0.0000 0.0000 1755.8063 -7293.2530 304.0998 -9049.0594 -7266.6205 300.0046 -141.1454 -38.9057 29565.8402 -155.2232 -89.2263
ENERGY: 1500000 7.5021 16.5000 27.0104 0.0000 -10564.4437 1509.7836 0.0000 0.0000 1709.5413 -7294.1063 296.0868 -9003.6476 -7268.7223 300.2189 666.8745 738.5588 29836.6770 -11.2932 57.4122
TCL: Running FEP window  10: Lambda1 0.5499999999999996 Lambda2 0.4999999999999996 [dLambda -0.04999999999999999]
TCL: Setting parameter firsttimestep to 0
TCL: Setting parameter alchLambda to 0.5499999999999996
Info: NONBONDED TABLE R-SQUARED SPACING: 0.0625
Info: NONBONDED TABLE SIZE: 705 POINTS
TCL: Setting parameter alchLambda2 to 0.4999999999999996
Info: NONBONDED TABLE R-SQUARED SPACING: 0.0625
Info: NONBONDED TABLE SIZE: 705 POINTS
TCL: Running for 1500000 steps
ETITLE: TS BOND ANGLE DIHED IMPRP ELECT VDW BOUNDARY MISC KINETIC TOTAL TEMP POTENTIAL TOTALAVG TEMPAVG PRESSURE GPRESSURE VOLUME PRESSAVG GPRESSAVG
ENERGY: 0 7.5021 16.5000 27.0104 0.0000 -10564.4761 1510.3078 0.0000 0.0000 1708.6821 -7294.4737 295.9380 -9003.1558 -7294.4737 295.9380 651.3657 731.7647 29836.6770 651.3657 731.7647
ENERGY: 300000 2.3363 11.9933 27.4699 0.0000 -10590.3710 1499.2205 0.0000 0.0000 1758.1366 -7291.2144 304.5034 -9049.3510 -7272.3381 300.7074 772.2153 838.6411 29772.0807 117.0613 153.3892
ENERGY: 600000 3.7537 10.9497 29.4804 0.0000 -10607.6569 1526.3923 0.0000 0.0000 1750.1645 -7286.9165 303.1226 -9037.0810 -7269.8951 302.3069 901.0369 943.6553 29720.9831 184.1034 234.5744
ENERGY: 900000 1.6093 12.1788 27.1274 0.0000 -10478.8274 1441.2485 0.0000 0.0000 1688.2637 -7308.3997 292.4016 -8996.6634 -7268.5017 301.6111 384.9813 378.5982 29732.8342 234.7851 279.9099
ENERGY: 1200000 1.3924 11.6887 26.0639 0.0000 -10514.9668 1438.6334 0.0000 0.0000 1755.7262 -7281.4622 304.0859 -9037.1884 -7271.5958 301.5345 165.1546 240.1892 30147.5187 178.0297 227.6196
ENERGY: 1500000 3.4450 11.5131 27.3035 0.0000 -10489.7704 1419.1186 0.0000 0.0000 1707.1580 -7321.2322 295.6741 -9028.3902 -7282.7473 300.9395 19.3240 100.7336 30092.0487 96.8285 152.0176
TCL: Running FEP window  11: Lambda1 0.4999999999999996 Lambda2 0.4499999999999996 [dLambda -0.04999999999999999]
TCL: Setting parameter firsttimestep to 0
TCL: Setting parameter alchLambda to 0.4999999999999996
Info: NONBONDED TABLE R-SQUARED SPACING: 0.0625
Info: NONBONDED TABLE SIZE: 705 POINTS
TCL: Setting parameter alchLambda2 to 0.4499999999999996
Info: NONBONDED TABLE R-SQUARED SPACING: 0.0625
Info: NONBONDED TABLE SIZE: 705 POINTS
TCL: Running for 1500000 steps
ETITLE: TS BOND ANGLE DIHED IMPRP ELECT VDW BOUNDARY MISC KINETIC TOTAL TEMP POTENTIAL TOTALAVG TEMPAVG PRESSURE GPRESSURE VOLUME PRESSAVG GPRESSAVG
ENERGY: 0 3.4450 11.5131 27.3035 0.0000 -10489.5232 1419.8893 0.0000 0.0000 1706.2596 -7321.1127 295.5185 -9027.3722 -7321.1127 295.5185 28.4079 100.1117 30092.0487 28.4079 100.1117
ENERGY: 300000 1.3181 9.8290 27.2793 0.0000 -10492.5171 1425.1724 0.0000 0.0000 1806.3880 -7222.5302 312.8604 -9028.9181 -7281.7076 299.9905 380.2470 519.6791 29515.2204 -288.6845 -211.7582
ENERGY: 600000 1.4790 8.3198 25.4840 0.0000 -10519.2858 1428.3508 0.0000 0.0000 1784.7774 -7270.8748 309.1175 -9055.6522 -7291.0102 299.7068 517.6841 548.3801 29057.1293 -136.3269 -64.9037
ENERGY: 900000 4.0055 12.6698 30.7983 0.0000 -10436.5377 1376.2246 0.0000 0.0000 1726.1253 -7286.7140 298.9591 -9012.8394 -7295.3782 299.3219 -141.6066 -72.4292 29337.5928 -26.9281 35.0911
ENERGY: 1200000 2.1491 14.3387 26.4838 0.0000 -10366.9320 1408.6402 0.0000 0.0000 1730.6831 -7184.6371 299.7485 -8915.3202 -7281.4397 299.4846 358.9550 440.2566 29610.4493 25.2210 86.3180
ENERGY: 1500000 1.6598 12.0413 25.0694 0.0000 -10484.7513 1429.4399 0.0000 0.0000 1714.1068 -7302.4342 296.8776 -9016.5409 -7281.4583 299.5246 504.0400 534.7795 29345.8150 27.8581 87.6622
TCL: Running FEP window  12: Lambda1 0.4499999999999996 Lambda2 0.39999999999999963 [dLambda -0.04999999999999999]
TCL: Setting parameter firsttimestep to 0
TCL: Setting parameter alchLambda to 0.4499999999999996
Info: NONBONDED TABLE R-SQUARED SPACING: 0.0625
Info: NONBONDED TABLE SIZE: 705 POINTS
TCL: Setting parameter alchLambda2 to 0.39999999999999963
Info: NONBONDED TABLE R-SQUARED SPACING: 0.0625
Info: NONBONDED TABLE SIZE: 705 POINTS
TCL: Running for 1500000 steps
ETITLE: TS BOND ANGLE DIHED IMPRP ELECT VDW BOUNDARY MISC KINETIC TOTAL TEMP POTENTIAL TOTALAVG TEMPAVG PRESSURE GPRESSURE VOLUME PRESSAVG GPRESSAVG
ENERGY: 0 1.6598 12.0413 25.0694 0.0000 -10484.7529 1429.6932 0.0000 0.0000 1713.2734 -7303.0158 296.7332 -9016.2893 -7303.0158 296.7332 440.9320 526.9507 29345.8150 440.9320 526.9507
ENERGY: 300000 4.7245 14.1443 27.2822 0.0000 -10506.7288 1453.3130 0.0000 0.0000 1695.3031 -7311.9617 293.6208 -9007.2648 -7288.0426 299.4350 339.9035 419.0631 29417.6873 134.6497 221.4900
ENERGY: 600000 3.7084 10.6803 29.5286 0.0000 -10630.7535 1486.6584 0.0000 0.0000 1716.6536 -7383.5240 297.3187 -9100.1777 -7286.0680 300.7243 409.4214 479.1157 29527.2149 -42.1307 33.6757
ENERGY: 900000 1.6089 16.3997 26.5167 0.0000 -10361.2399 1333.8843 0.0000 0.0000 1695.0436 -7287.7867 293.5759 -8982.8303 -7281.2614 299.7904 -738.6794 -635.7650 29861.3459 -182.9837 -103.3724
ENERGY: 1200000 2.0037 18.2644 25.7306 0.0000 -10389.0029 1359.9840 0.0000 0.0000 1728.9585 -7254.0618 299.4498 -8983.0203 -7283.4519 298.8042 -263.6622 -155.0901 29592.3803 -234.3030 -156.5692
ENERGY: 1500000 4.4742 14.2432 25.9490 0.0000 -10284.9707 1273.5516 0.0000 0.0000 1706.2883 -7260.4645 295.5234 -8966.7528 -7271.5785 299.4682 -1352.3389 -1240.1883 30157.1230 -199.1304 -118.4338
TCL: Running FEP window  13: Lambda1 0.39999999999999963 Lambda2 0.34999999999999964 [dLambda -0.04999999999999999]
TCL: Setting parameter firsttimestep to 0
TCL: Setting parameter alchLambda to 0.39999999999999963
Info: NONBONDED TABLE R-SQUARED SPACING: 0.0625
Info: NONBONDED TABLE SIZE: 705 POINTS
TCL: Setting parameter alchLambda2 to 0.34999999999999964
Info: NONBONDED TABLE R-SQUARED SPACING: 0.0625
Info: NONBONDED TABLE SIZE: 705 POINTS
TCL: Running for 1500000 steps
ETITLE: TS BOND ANGLE DIHED IMPRP ELECT VDW BOUNDARY MISC KINETIC TOTAL TEMP POTENTIAL TOTALAVG TEMPAVG PRESSURE GPRESSURE VOLUME PRESSAVG GPRESSAVG
ENERGY: 0 4.4741 14.2432 25.9490 0.0000 -10284.9697 1273.6949 0.0000 0.0000 1705.4226 -7261.1859 295.3735 -8966.6086 -7261.1859 295.3735 -1338.4904 -1247.9123 30157.1230 -1338.4904 -1247.9123
ENERGY: 300000 2.3751 15.4735 28.4085 0.0000 -10481.6481 1407.7724 0.0000 0.0000 1717.3769 -7310.2418 297.4439 -9027.6187 -7275.5688 298.6016 -122.5907 -36.6728 29676.6828 -404.6287 -340.5958
ENERGY: 600000 3.7321 16.1516 23.9007 0.0000 -10455.5018 1398.9867 0.0000 0.0000 1696.6933 -7316.0374 293.8616 -9012.7307 -7288.4942 297.6240 -345.9199 -266.3377 29668.8420 -365.2433 -303.5858
ENERGY: 900000 1.5546 18.9298 28.3123 0.0000 -10421.9808 1387.7104 0.0000 0.0000 1740.3075 -7245.1661 301.4154 -8985.4736 -7268.0159 299.5120 -157.5283 -49.6203 29887.3098 -230.8535 -156.8513
ENERGY: 1200000 3.7824 15.5629 29.4353 0.0000 -10461.6191 1429.6974 0.0000 0.0000 1803.1989 -7179.9422 312.3080 -8983.1412 -7253.2092 301.6202 177.9254 236.8383 29780.9129 -197.3209 -123.6494
ENERGY: 1500000 0.9976 12.4628 30.3550 0.0000 -10537.0234 1395.0863 0.0000 0.0000 1742.3004 -7355.8212 301.7606 -9098.1216 -7269.2013 300.9134 -218.3168 -252.0293 29461.3665 -140.8668 -74.9410
TCL: Running FEP window  14: Lambda1 0.34999999999999964 Lambda2 0.29999999999999966 [dLambda -0.04999999999999999]
TCL: Setting parameter firsttimestep to 0
TCL: Setting parameter alchLambda to 0.34999999999999964
Info: NONBONDED TABLE R-SQUARED SPACING: 0.0625
Info: NONBONDED TABLE SIZE: 705 POINTS
TCL: Setting parameter alchLambda2 to 0.29999999999999966
Info: NONBONDED TABLE R-SQUARED SPACING: 0.0625
Info: NONBONDED TABLE SIZE: 705 POINTS
TCL: Running for 1500000 steps
ETITLE: TS BOND ANGLE DIHED IMPRP ELECT VDW BOUNDARY MISC KINETIC TOTAL TEMP POTENTIAL TOTALAVG TEMPAVG PRESSURE GPRESSURE VOLUME PRESSAVG GPRESSAVG
ENERGY: 0 0.9976 12.4629 30.3550 0.0000 -10537.0233 1395.0467 0.0000 0.0000 1741.4288 -7356.7322 301.6097 -9098.1611 -7356.7322 301.6097 -343.1955 -261.1224 29461.3665 -343.1955 -261.1224
ENERGY: 300000 3.4825 12.6816 29.7514 0.0000 -10479.0818 1436.8919 0.0000 0.0000 1736.9502 -7259.3241 300.8340 -8996.2743 -7295.6127 300.8488 486.3009 611.0139 29166.9995 29.8526 90.4905
ENERGY: 600000 2.2204 7.9620 28.1061 0.0000 -10359.5698 1318.1547 0.0000 0.0000 1711.0696 -7292.0571 296.3515 -9003.1267 -7294.8189 299.3941 -527.4578 -441.3049 29482.8818 138.9508 202.6036
ENERGY: 900000 6.8063 9.7673 26.8762 0.0000 -10482.2692 1428.2849 0.0000 0.0000 1717.7876 -7292.7468 297.5151 -9010.5344 -7284.7495 299.8698 90.2276 184.1226 29531.9947 221.7953 288.9215
ENERGY: 1200000 2.2971 10.9638 26.3972 0.0000 -10312.3414 1326.7076 0.0000 0.0000 1749.9188 -7196.0569 303.0801 -8945.9757 -7292.7815 298.9414 -652.2208 -584.8496 29916.9593 183.7297 259.5792
ENERGY: 1500000 1.2946 10.7133 27.1664 0.0000 -10628.7642 1488.0773 0.0000 0.0000 1685.5926 -7415.9200 291.9390 -9101.5126 -7303.5783 297.9166 488.1291 528.3221 29495.9792 186.1751 254.4860
TCL: Running FEP window  15: Lambda1 0.29999999999999966 Lambda2 0.24999999999999967 [dLambda -0.04999999999999999]
TCL: Setting parameter firsttimestep to 0
TCL: Setting parameter alchLambda to 0.29999999999999966
Info: NONBONDED TABLE R-SQUARED SPACING: 0.0625
Info: NONBONDED TABLE SIZE: 705 POINTS
TCL: Setting parameter alchLambda2 to 0.24999999999999967
Info: NONBONDED TABLE R-SQUARED SPACING: 0.0625
Info: NONBONDED TABLE SIZE: 705 POINTS
TCL: Running for 1500000 steps
ETITLE: TS BOND ANGLE DIHED IMPRP ELECT VDW BOUNDARY MISC KINETIC TOTAL TEMP POTENTIAL TOTALAVG TEMPAVG PRESSURE GPRESSURE VOLUME PRESSAVG GPRESSAVG
ENERGY: 0 1.2946 10.7133 27.1664 0.0000 -10628.7646 1488.0047 0.0000 0.0000 1684.7357 -7416.8500 291.7906 -9101.5857 -7416.8500 291.7906 444.0069 520.3449 29495.9792 444.0069 520.3449
ENERGY: 300000 2.9964 9.5084 26.2412 0.0000 -10447.1441 1409.4604 0.0000 0.0000 1729.8385 -7269.0992 299.6023 -8998.9377 -7305.4242 299.3986 257.9335 307.5872 29626.1096 -64.3200 16.5916
ENERGY: 600000 3.1600 17.4273 27.9658 0.0000 -10488.4527 1402.5237 0.0000 0.0000 1759.3071 -7278.0687 304.7061 -9037.3758 -7286.8301 299.8471 -55.0079 -32.2702 29706.5336 -152.8592 -88.1115
ENERGY: 900000 1.9613 14.5982 29.5397 0.0000 -10363.1314 1349.9969 0.0000 0.0000 1746.2357 -7220.7997 302.4422 -8967.0354 -7269.1345 299.8741 -470.1574 -433.6522 30075.0196 -123.6265 -59.5772
ENERGY: 1200000 5.6323 15.0586 25.7062 0.0000 -10437.5057 1400.3291 0.0000 0.0000 1749.5969 -7241.1826 303.0243 -8990.7796 -7265.1468 300.7735 -202.3561 -145.0355 30161.3945 -73.0957 -12.8945
ENERGY: 1500000 3.5785 12.4138 25.7461 0.0000 -10458.7725 1347.9673 0.0000 0.0000 1726.0898 -7342.9771 298.9530 -9069.0669 -7271.9494 300.7167 -836.3078 -749.6966 29733.5461 -134.1604 -63.5751
TCL: Running FEP window  16: Lambda1 0.24999999999999967 Lambda2 0.19999999999999968 [dLambda -0.04999999999999999]
TCL: Setting parameter firsttimestep to 0
TCL: Setting parameter alchLambda to 0.24999999999999967
Info: NONBONDED TABLE R-SQUARED SPACING: 0.0625
Info: NONBONDED TABLE SIZE: 705 POINTS
TCL: Setting parameter alchLambda2 to 0.19999999999999968
Info: NONBONDED TABLE R-SQUARED SPACING: 0.0625
Info: NONBONDED TABLE SIZE: 705 POINTS
TCL: Running for 1500000 steps
ETITLE: TS BOND ANGLE DIHED IMPRP ELECT VDW BOUNDARY MISC KINETIC TOTAL TEMP POTENTIAL TOTALAVG TEMPAVG PRESSURE GPRESSURE VOLUME PRESSAVG GPRESSAVG
ENERGY: 0 3.5785 12.4138 25.7461 0.0000 -10458.7737 1347.3657 0.0000 0.0000 1725.2300 -7344.4397 298.8041 -9069.6697 -7344.4397 298.8041 -837.8802 -759.6466 29733.5461 -837.8802 -759.6466
ENERGY: 300000 3.0650 11.0467 27.3371 0.0000 -10534.6438 1478.4965 0.0000 0.0000 1769.2906 -7245.4080 306.4352 -9014.6985 -7266.3804 301.0654 613.6611 688.1388 29429.9403 -155.7114 -99.4892
ENERGY: 600000 3.6409 10.7287 28.2851 0.0000 -10527.6999 1445.7722 0.0000 0.0000 1755.7814 -7283.4917 304.0955 -9039.2731 -7278.7783 299.6774 187.2419 255.7217 29432.9352 -42.1177 10.7504
ENERGY: 900000 1.2749 14.0944 26.5301 0.0000 -10416.7138 1442.0814 0.0000 0.0000 1744.8568 -7187.8762 302.2034 -8932.7330 -7260.9265 300.6144 515.5688 550.1638 29851.5660 -66.3733 -11.7147
ENERGY: 1200000 3.2324 10.5623 26.4486 0.0000 -10523.1639 1448.1387 0.0000 0.0000 1739.9512 -7294.8306 301.3537 -9034.7818 -7259.8182 300.3822 390.1902 428.3417 29590.4109 -23.4145 30.2325
ENERGY: 1500000 5.2789 9.3822 27.5250 0.0000 -10457.9137 1378.9906 0.0000 0.0000 1726.6407 -7310.0963 299.0484 -9036.7370 -7265.0722 300.7446 -477.0845 -445.3401 29721.6173 -62.5056 -10.8966
TCL: Running FEP window  17: Lambda1 0.19999999999999968 Lambda2 0.1499999999999997 [dLambda -0.04999999999999999]
TCL: Setting parameter firsttimestep to 0
TCL: Setting parameter alchLambda to 0.19999999999999968
Info: NONBONDED TABLE R-SQUARED SPACING: 0.0625
Info: NONBONDED TABLE SIZE: 705 POINTS
TCL: Setting parameter alchLambda2 to 0.1499999999999997
Info: NONBONDED TABLE R-SQUARED SPACING: 0.0625
Info: NONBONDED TABLE SIZE: 705 POINTS
TCL: Running for 1500000 steps
ETITLE: TS BOND ANGLE DIHED IMPRP ELECT VDW BOUNDARY MISC KINETIC TOTAL TEMP POTENTIAL TOTALAVG TEMPAVG PRESSURE GPRESSURE VOLUME PRESSAVG GPRESSAVG
ENERGY: 0 5.2789 9.3822 27.5250 0.0000 -10457.9147 1378.6649 0.0000 0.0000 1725.7774 -7311.2863 298.8989 -9037.0637 -7311.2863 298.8989 -521.7489 -451.0318 29721.6173 -521.7489 -451.0318
ENERGY: 300000 3.3596 14.5985 25.9390 0.0000 -10493.5059 1437.3662 0.0000 0.0000 1707.2580 -7304.9846 295.6914 -9012.2426 -7295.8170 300.9284 -10.0219 77.9111 29851.3173 -135.2206 -71.4929
ENERGY: 600000 3.4754 7.2644 28.4570 0.0000 -10372.5307 1347.2559 0.0000 0.0000 1786.1575 -7199.9204 309.3565 -8986.0780 -7281.2845 301.4963 -544.3753 -485.5728 29989.5814 -190.4730 -132.8939
ENERGY: 900000 1.9360 14.1639 29.5160 0.0000 -10418.6254 1402.0795 0.0000 0.0000 1733.4261 -7237.5040 300.2236 -8970.9301 -7270.4456 301.7295 164.4120 245.9694 29594.7220 -233.7122 -167.0996
ENERGY: 1200000 3.1174 18.7181 29.4868 0.0000 -10529.4566 1494.5358 0.0000 0.0000 1667.9468 -7315.6518 288.8828 -8983.5986 -7269.8591 300.8869 567.4738 618.2038 29654.4762 -208.7283 -142.7261
ENERGY: 1500000 2.9026 12.7083 28.9934 0.0000 -10419.0585 1374.1524 0.0000 0.0000 1722.9074 -7277.3944 298.4018 -9000.3018 -7268.5241 300.4985 -274.0801 -241.8864 29712.7371 -192.0172 -131.1920
TCL: Running FEP window  18: Lambda1 0.1499999999999997 Lambda2 0.09999999999999969 [dLambda -0.05 ]
TCL: Setting parameter firsttimestep to 0
TCL: Setting parameter alchLambda to 0.1499999999999997
Info: NONBONDED TABLE R-SQUARED SPACING: 0.0625
Info: NONBONDED TABLE SIZE: 705 POINTS
TCL: Setting parameter alchLambda2 to 0.09999999999999969
Info: NONBONDED TABLE R-SQUARED SPACING: 0.0625
Info: NONBONDED TABLE SIZE: 705 POINTS
TCL: Running for 1500000 steps
ETITLE: TS BOND ANGLE DIHED IMPRP ELECT VDW BOUNDARY MISC KINETIC TOTAL TEMP POTENTIAL TOTALAVG TEMPAVG PRESSURE GPRESSURE VOLUME PRESSAVG GPRESSAVG
ENERGY: 0 2.9026 12.7083 28.9934 0.0000 -10419.0587 1374.3248 0.0000 0.0000 1722.0665 -7278.0632 298.2562 -9000.1296 -7278.0632 298.2562 -330.7181 -246.8096 29712.7371 -330.7181 -246.8096
ENERGY: 300000 1.6931 15.9098 27.0298 0.0000 -10505.0565 1421.0727 0.0000 0.0000 1775.6719 -7263.6792 307.5404 -9039.3511 -7267.5468 303.2796 -18.8396 34.1468 29558.1857 -214.2999 -140.6284
ENERGY: 600000 2.9533 12.8164 24.7440 0.0000 -10416.1718 1394.9136 0.0000 0.0000 1770.4783 -7210.2662 306.6409 -8980.7446 -7263.1930 303.4834 -176.2801 -93.3533 29646.3356 -186.3230 -113.6077
ENERGY: 900000 3.2922 15.1541 25.7543 0.0000 -10376.7337 1352.0030 0.0000 0.0000 1729.2725 -7251.2575 299.5042 -8980.5301 -7260.4829 302.1199 -428.4206 -358.8259 29611.8213 -276.8732 -206.2007
ENERGY: 1200000 8.5735 12.1439 27.7678 0.0000 -10298.3370 1350.4485 0.0000 0.0000 1736.7547 -7162.6488 300.8001 -8899.4034 -7246.5357 302.1527 -269.0561 -147.2468 29621.5983 -242.5501 -162.7438
ENERGY: 1500000 3.1327 10.5741 27.1651 0.0000 -10359.6424 1350.5844 0.0000 0.0000 1721.8324 -7246.3537 298.2156 -8968.1861 -7256.3973 301.3788 -399.7015 -374.5066 29899.4214 -163.8336 -84.6917
TCL: Running FEP window  19: Lambda1 0.09999999999999969 Lambda2 0.049999999999999684 [dLambda -0.05 ]
TCL: Setting parameter firsttimestep to 0
TCL: Setting parameter alchLambda to 0.09999999999999969
Info: NONBONDED TABLE R-SQUARED SPACING: 0.0625
Info: NONBONDED TABLE SIZE: 705 POINTS
TCL: Setting parameter alchLambda2 to 0.049999999999999684
Info: NONBONDED TABLE R-SQUARED SPACING: 0.0625
Info: NONBONDED TABLE SIZE: 705 POINTS
TCL: Running for 1500000 steps
ETITLE: TS BOND ANGLE DIHED IMPRP ELECT VDW BOUNDARY MISC KINETIC TOTAL TEMP POTENTIAL TOTALAVG TEMPAVG PRESSURE GPRESSURE VOLUME PRESSAVG GPRESSAVG
ENERGY: 0 3.1327 10.5741 27.1651 0.0000 -10359.6417 1350.4011 0.0000 0.0000 1720.8981 -7247.4705 298.0538 -8968.3686 -7247.4705 298.0538 -468.6186 -381.4636 29899.4214 -468.6186 -381.4636
ENERGY: 300000 3.1116 8.2800 27.2531 0.0000 -10440.9905 1398.8369 0.0000 0.0000 1756.0708 -7247.4381 304.1456 -9003.5089 -7222.1678 302.6759 -314.6667 -226.4102 29703.2417 -198.9418 -105.8982
ENERGY: 600000 3.7203 8.8003 27.6539 0.0000 -10522.7235 1470.1931 0.0000 0.0000 1742.0152 -7270.3407 301.7112 -9012.3559 -7234.8248 302.2109 278.8092 315.5324 29905.2411 -274.4385 -183.0176
ENERGY: 900000 1.6697 14.5833 26.7952 0.0000 -10514.3709 1415.1422 0.0000 0.0000 1727.6071 -7328.5735 299.2158 -9056.1806 -7248.2958 301.9503 15.4980 46.6103 29306.7370 -264.1812 -178.7777
ENERGY: 1200000 2.6797 13.2260 29.0229 0.0000 -10363.6281 1347.9485 0.0000 0.0000 1685.6481 -7285.1029 291.9486 -8970.7510 -7256.3284 301.0639 -418.3853 -359.8082 29526.2360 -179.5258 -100.7729
ENERGY: 1500000 2.1251 15.6184 26.4792 0.0000 -10532.9656 1465.8727 0.0000 0.0000 1734.4458 -7288.4244 300.4002 -9022.8702 -7254.7007 301.4682 305.5095 448.9287 29369.6418 -187.9029 -108.9522
TCL: Running FEP window  20: Lambda1 0.049999999999999684 Lambda2 0.0    [dLambda -0.049999999999999684]
TCL: Setting parameter firsttimestep to 0
TCL: Setting parameter alchLambda to 0.049999999999999684
Info: NONBONDED TABLE R-SQUARED SPACING: 0.0625
Info: NONBONDED TABLE SIZE: 705 POINTS
TCL: Setting parameter alchLambda2 to 0.0
Info: NONBONDED TABLE R-SQUARED SPACING: 0.0625
Info: NONBONDED TABLE SIZE: 705 POINTS
TCL: Running for 1500000 steps
ETITLE: TS BOND ANGLE DIHED IMPRP ELECT VDW BOUNDARY MISC KINETIC TOTAL TEMP POTENTIAL TOTALAVG TEMPAVG PRESSURE GPRESSURE VOLUME PRESSAVG GPRESSAVG
ENERGY: 0 2.1251 15.6184 26.4792 0.0000 -10532.9670 1464.6550 0.0000 0.0000 1733.5999 -7290.4893 300.2537 -9024.0892 -7290.4893 300.2537 353.1081 438.8079 29369.6418 353.1081 438.8079
ENERGY: 300000 3.3860 11.7701 28.1625 0.0000 -10443.9748 1458.5090 0.0000 0.0000 1675.2882 -7266.8589 290.1543 -8942.1471 -7296.1487 295.0099 673.5057 747.3708 29414.8706 127.3443 203.6680
ENERGY: 600000 4.3701 16.9744 28.7824 0.0000 -10541.5600 1462.4303 0.0000 0.0000 1705.3171 -7323.6859 295.3552 -9029.0029 -7288.7961 297.0231 285.6958 376.3699 29497.9324 0.3070 74.7657
ENERGY: 900000 1.1362 14.5598 26.2860 0.0000 -10487.2630 1383.6620 0.0000 0.0000 1742.2548 -7319.3642 301.7527 -9061.6190 -7301.8510 297.6891 -360.0785 -344.8524 29583.8035 -96.3143 -31.6050
ENERGY: 1200000 3.0593 17.0542 25.8638 0.0000 -10378.8206 1378.3986 0.0000 0.0000 1762.7293 -7191.7154 305.2988 -8954.4447 -7279.1590 299.8406 -237.2129 -195.3719 29751.0519 -91.9408 -26.0125
ENERGY: 1500000 3.4372 13.4239 25.9592 0.0000 -10451.9129 1361.7579 0.0000 0.0000 1738.2437 -7309.0910 301.0580 -9047.3347 -7278.4868 300.0282 -537.2120 -407.7626 29481.9728 -95.1845 -23.5498
TCL: Exiting due to exit command.
