Info: SIMULATION PARAMETERS:
Info: TIMESTEP               2
Info: NUMBER OF STEPS        0
Info: STEPS PER CYCLE        10
Info: PERIODIC CELL BASIS 1  30.2223 0 0
Info: PERIODIC CELL BASIS 2  0 29.2125 0
Info: PERIODIC CELL BASIS 3  0 0 34.9097
Info: PERIODIC CELL CENTER   0 0 0
Info: WRAPPING WATERS AROUND PERIODIC BOUNDARIES ON OUTPUT.
Info: WRAPPING ALL CLUSTERS AROUND PERIODIC BOUNDARIES ON OUTPUT.
Info: FIRST LDB TIMESTEP     50
Info: LAST LDB TIMESTEP     -1
Info: HOM BACKGROUND SCALING 1
Info: PME BACKGROUND SCALING 1
Info: MIN ATOMS PER PATCH    40
Info: EMPTY PATCH LOAD       40 ATOMS
Info: VELOCITY FILE          mobley_1743409_equil.vel
Info: CENTER OF MASS MOVING INITIALLY? NO
Info: DIELECTRIC             1
Info: EXCLUDE                SCALED ONE-FOUR
Info: 1-4 ELECTROSTATICS SCALED BY 0.833333
Info: MODIFIED 1-4 VDW PARAMETERS WILL BE USED
Info: DCD FILENAME           mobley_1743409_prod.dcd
Info: DCD FREQUENCY          100000
Info: DCD FIRST STEP         100000
Info: DCD FILE WILL CONTAIN UNIT CELL DATA
Info: XST FILENAME           mobley_1743409_prod.xst
Info: XST FREQUENCY          100000
Info: NO VELOCITY DCD OUTPUT
Info: NO FORCE DCD OUTPUT
Info: OUTPUT FILENAME        mobley_1743409_prod
Info: BINARY OUTPUT FILES WILL BE USED
Info: RESTART FILENAME       mobley_1743409_prod.restart
Info: RESTART FREQUENCY      100000
Info: BINARY RESTART FILES WILL BE USED
Info: CUTOFF                 9
Info: PAIRLIST DISTANCE      11
Info: PAIRLIST SHRINK RATE   0.01
Info: PAIRLIST GROW RATE     0.01
Info: PAIRLIST TRIGGER       0.3
Info: PAIRLISTS PER CYCLE    2
Info: PAIRLISTS ENABLED
Info: MARGIN                 2
Info: HYDROGEN GROUP CUTOFF  2.5
Info: PATCH DIMENSION        15.5
Info: ENERGY OUTPUT STEPS    100000
Info: ENERGY EVALUATION STEPS    100000
Info: OUTPUT ENERGY PRECISION 4
Info: CROSSTERM ENERGY INCLUDED IN DIHEDRAL
Info: TIMING OUTPUT STEPS    1000000
Info: PRESSURE OUTPUT STEPS  100000
Info: ALCHEMICAL FEP ON
Info: FEP CURRENT LAMBDA VALUE     0
Info: FEP COMPARISON LAMBDA VALUE  0.05
Info: FEP INTRA-ALCHEMICAL NON-BONDED INTERACTIONS WILL BE RETAINED
Info: FEP INTRA-ALCHEMICAL BONDED INTERACTIONS WILL BE RETAINED
Info: FEP VDW SHIFTING COEFFICIENT 5
Info: FEP ELEC. ACTIVE FOR ANNIHILATED PARTICLES BETWEEN LAMBDA = 0 AND LAMBDA = 0.5
Info: FEP ELEC. ACTIVE FOR EXNIHILATED PARTICLES BETWEEN LAMBDA = 0.5 AND LAMBDA = 1
Info: FEP VDW ACTIVE FOR ANNIHILATED PARTICLES BETWEEN LAMBDA = 0 AND LAMBDA = 1
Info: FEP VDW ACTIVE FOR EXNIHILATED PARTICLES BETWEEN LAMBDA = 0 AND LAMBDA = 1
Info: FEP BOND ACTIVE FOR ANNIHILATED PARTICLES BETWEEN LAMBDA = 1 AND LAMBDA = 1
Info: FEP BOND ACTIVE FOR EXNIHILATED PARTICLES BETWEEN LAMBDA = 0 AND LAMBDA = 0
Info: LANGEVIN DYNAMICS ACTIVE
Info: LANGEVIN TEMPERATURE   300
Info: LANGEVIN USING BBK INTEGRATOR
Info: LANGEVIN DAMPING COEFFICIENT IS 1 INVERSE PS
Info: LANGEVIN DYNAMICS APPLIED TO HYDROGENS
Info: LANGEVIN PISTON PRESSURE CONTROL ACTIVE
Info:        TARGET PRESSURE IS 1.01325 BAR
Info:     OSCILLATION PERIOD IS 50 FS
Info:             DECAY TIME IS 25 FS
Info:     PISTON TEMPERATURE IS 300 K
Info:       PRESSURE CONTROL IS GROUP-BASED
Info:    INITIAL STRAIN RATE IS 0.000445919 0.000445919 0.000445919
Info:       CELL FLUCTUATION IS ISOTROPIC
Info: PARTICLE MESH EWALD (PME) ACTIVE
Info: PME TOLERANCE               1e-06
Info: PME EWALD COEFFICIENT       0.348832
Info: PME INTERPOLATION ORDER     4
Info: PME GRID DIMENSIONS         32 32 36
Info: PME MAXIMUM GRID SPACING    1
Info: PME CALCULATION WILL BE PERFORMED ON GPU
Info: FULL ELECTROSTATIC EVALUATION FREQUENCY      2
Info: USING VERLET I (r-RESPA) MTS SCHEME.
Info: C1 SPLITTING OF LONG RANGE ELECTROSTATICS
Info: PLACING ATOMS IN PATCHES BY HYDROGEN GROUPS
Info: RIGID BONDS TO HYDROGEN : ALL
Info:         ERROR TOLERANCE : 1e-08
Info:          MAX ITERATIONS : 100
Info: RIGID WATER USING SETTLE ALGORITHM
Info: RANDOM NUMBER SEED     1744026878
Info: USE HYDROGEN BONDS?    NO
Info: Using AMBER format force field!
Info: AMBER PARM FILE        mobley_1743409.prmtop
Info: COORDINATE PDB         mobley_1743409.pdb
Info: Exclusions will be read from PARM file!
Info: SCNB (VDW SCALING)     2
Info: USING ARITHMETIC MEAN TO COMBINE L-J SIGMA PARAMETERS
Info: BINARY COORDINATES     mobley_1743409_equil.coor
Info: SUMMARY OF PARAMETERS:
Info: 9 BONDS
Info: 12 ANGLES
Info:   12 HARMONIC
Info:   0 COSINE-BASED
Info: 16 DIHEDRAL
Info: 0 IMPROPER
Info: 0 CROSSTERM
Info: 0 VDW
Info: 36 VDW_PAIRS
Info: 0 NBTHOLE_PAIRS
Info: To read alchdata from file: mobley_1743409.pdb
Info: To read alchflag data from column: 5
Info: STRUCTURE SUMMARY:
Info: 2987 ATOMS
Info: 2986 BONDS
Info: 44 ANGLES
Info: 73 DIHEDRALS
Info: 0 IMPROPERS
Info: 0 CROSSTERMS
Info: 3079 EXCLUSIONS
Info: 2975 RIGID BONDS
Info: ALCH: 0 ATOMS TO DISAPPEAR IN FINAL STATE
Info: ALCH: 26 ATOMS TO APPEAR IN FINAL STATE
Info: 5986 DEGREES OF FREEDOM
Info: 999 HYDROGEN GROUPS
Info: 4 ATOMS IN LARGEST HYDROGEN GROUP
Info: 999 MIGRATION GROUPS
Info: 4 ATOMS IN LARGEST MIGRATION GROUP
Info: TOTAL MASS = 17956 amu
Info: TOTAL CHARGE = -9.99197e-05 e
Info: MASS DENSITY = 0.967446 g/cm^3
Info: ATOM DENSITY = 0.0969156 atoms/A^3
Info: ADDED 0 IMPLICIT EXCLUSIONS
Info: NONBONDED TABLE R-SQUARED SPACING: 0.0625
Info: NONBONDED TABLE SIZE: 705 POINTS
Info: REMOVING COM VELOCITY 0.0391022 0.156026 0.118627
Info: Use 3D box decompostion in PME FFT.
Info: Updated CUDA force table with 4096 elements.
Info: Updated CUDA LJ table with 8 x 8 elements.
Info: Found 28 unique exclusion lists needing 92 bytes
TCL: Running for 1500000 steps
ETITLE: TS BOND ANGLE DIHED IMPRP ELECT VDW BOUNDARY MISC KINETIC TOTAL TEMP POTENTIAL TOTALAVG TEMPAVG PRESSURE GPRESSURE VOLUME PRESSAVG GPRESSAVG
ENERGY: 0 3.9418 13.0403 8.9645 0.0000 -10725.1093 1382.6973 0.0000 0.0000 1772.3827 -7544.0828 297.9965 -9316.4655 -7544.0828 297.9965 -698.9321 -612.1454 30820.6385 -698.9321 -612.1454
ENERGY: 300000 5.6319 12.9227 10.4367 0.0000 -10894.3561 1429.3153 0.0000 0.0000 1807.2654 -7628.7841 303.8615 -9436.0495 -7598.8140 301.6473 -619.0249 -457.5669 30207.6680 -336.3584 -247.2799
ENERGY: 600000 4.8846 15.2741 10.5658 0.0000 -10903.2055 1489.4304 0.0000 0.0000 1791.5854 -7591.4651 301.2251 -9383.0506 -7594.7661 300.9370 283.4960 277.5780 29928.4921 -299.4197 -233.0538
ENERGY: 900000 4.4764 10.6685 6.9270 0.0000 -10906.5547 1506.1338 0.0000 0.0000 1794.3670 -7583.9819 301.6928 -9378.3490 -7582.3646 301.5513 469.8842 549.1238 30172.6153 -99.2309 -39.1944
ENERGY: 1200000 5.4492 11.7862 8.5098 0.0000 -10819.7657 1438.6849 0.0000 0.0000 1817.6449 -7537.6907 305.6066 -9355.3356 -7573.4382 301.1211 -144.0567 -143.6237 30702.9015 -84.6785 -28.6706
ENERGY: 1500000 3.6639 10.7959 11.4229 0.0000 -10819.1278 1419.8916 0.0000 0.0000 1744.2294 -7629.1240 293.2630 -9373.3534 -7575.7986 300.2984 -133.3221 -75.4707 30238.0976 -126.1038 -73.1874
TCL: Running FEP window   2: Lambda1 0.05   Lambda2 0.1    [dLambda 0.05  ]
TCL: Setting parameter firsttimestep to 0
TCL: Setting parameter alchLambda to 0.05
Info: NONBONDED TABLE R-SQUARED SPACING: 0.0625
Info: NONBONDED TABLE SIZE: 705 POINTS
TCL: Setting parameter alchLambda2 to 0.1
Info: NONBONDED TABLE R-SQUARED SPACING: 0.0625
Info: NONBONDED TABLE SIZE: 705 POINTS
TCL: Running for 1500000 steps
ETITLE: TS BOND ANGLE DIHED IMPRP ELECT VDW BOUNDARY MISC KINETIC TOTAL TEMP POTENTIAL TOTALAVG TEMPAVG PRESSURE GPRESSURE VOLUME PRESSAVG GPRESSAVG
ENERGY: 0 3.6639 10.7959 11.4229 0.0000 -10819.1253 1421.0240 0.0000 0.0000 1743.3761 -7628.8425 293.1195 -9372.2186 -7628.8425 293.1195 -165.0855 -66.3284 30238.0976 -165.0855 -66.3284
ENERGY: 300000 5.6934 13.2528 6.6867 0.0000 -10704.6236 1412.3737 0.0000 0.0000 1774.7183 -7491.8987 298.3892 -9266.6170 -7528.7101 293.8779 -285.8085 -239.9566 30800.0441 -347.3771 -272.4952
ENERGY: 600000 3.4932 9.6777 8.5222 0.0000 -10806.7729 1379.9101 0.0000 0.0000 1768.7507 -7636.4191 297.3858 -9405.1697 -7579.2967 294.5817 -817.0838 -833.9155 30822.9534 -333.2352 -290.5872
ENERGY: 900000 5.4113 10.3121 6.9528 0.0000 -10781.8866 1444.2010 0.0000 0.0000 1782.3794 -7532.6299 299.6773 -9315.0094 -7573.1852 296.3856 -74.2917 -98.6587 30624.8525 -300.3262 -261.7393
ENERGY: 1200000 3.2504 8.9543 13.9514 0.0000 -10833.8707 1488.5616 0.0000 0.0000 1763.3499 -7555.8032 296.4778 -9319.1531 -7571.9850 296.8665 552.8334 647.2187 29886.3189 -223.3613 -172.0902
ENERGY: 1500000 2.3575 13.7216 6.7515 0.0000 -10758.1523 1417.0099 0.0000 0.0000 1768.8098 -7549.5019 297.3958 -9318.3118 -7572.0764 297.2700 -130.7673 -122.1486 30454.8544 -226.3543 -170.8132
TCL: Running FEP window   3: Lambda1 0.1    Lambda2 0.15000000000000002 [dLambda 0.05000000000000002]
TCL: Setting parameter firsttimestep to 0
TCL: Setting parameter alchLambda to 0.1
Info: NONBONDED TABLE R-SQUARED SPACING: 0.0625
Info: NONBONDED TABLE SIZE: 705 POINTS
TCL: Setting parameter alchLambda2 to 0.15000000000000002
Info: NONBONDED TABLE R-SQUARED SPACING: 0.0625
Info: NONBONDED TABLE SIZE: 705 POINTS
TCL: Running for 1500000 steps
ETITLE: TS BOND ANGLE DIHED IMPRP ELECT VDW BOUNDARY MISC KINETIC TOTAL TEMP POTENTIAL TOTALAVG TEMPAVG PRESSURE GPRESSURE VOLUME PRESSAVG GPRESSAVG
ENERGY: 0 2.3575 13.7216 6.7515 0.0000 -10758.1524 1419.4655 0.0000 0.0000 1767.9087 -7547.9476 297.2443 -9315.8563 -7547.9476 297.2443 -214.0170 -114.6694 30454.8544 -214.0170 -114.6694
ENERGY: 300000 2.5620 5.3725 9.5852 0.0000 -10771.7469 1371.8219 0.0000 0.0000 1782.0913 -7600.3140 299.6288 -9382.4053 -7576.6440 296.2426 -664.7118 -657.4487 30296.0615 78.9013 156.1124
ENERGY: 600000 5.5975 14.1752 8.4157 0.0000 -10856.4349 1442.4685 0.0000 0.0000 1802.3424 -7583.4357 303.0337 -9385.7781 -7588.4113 297.4099 22.7855 79.3299 29963.5683 101.7893 172.2133
ENERGY: 900000 1.4934 11.4601 8.7277 0.0000 -10795.1529 1408.2231 0.0000 0.0000 1803.3808 -7561.8678 303.2083 -9365.2486 -7598.0371 298.7562 -315.8659 -271.0321 30656.1798 -7.9283 58.8398
ENERGY: 1200000 3.9854 12.9308 7.6531 0.0000 -10846.4027 1470.1882 0.0000 0.0000 1813.7491 -7537.8961 304.9516 -9351.6452 -7597.5856 298.1654 81.2383 153.7086 30681.9531 -76.2232 -3.3261
ENERGY: 1500000 4.6837 9.3975 9.6807 0.0000 -10944.0930 1511.8885 0.0000 0.0000 1784.7425 -7623.7002 300.0746 -9408.4427 -7589.2770 298.8614 406.2794 469.0113 30298.7761 -106.6135 -36.2840
TCL: Running FEP window   4: Lambda1 0.15000000000000002 Lambda2 0.2    [dLambda 0.04999999999999999]
TCL: Setting parameter firsttimestep to 0
TCL: Setting parameter alchLambda to 0.15000000000000002
Info: NONBONDED TABLE R-SQUARED SPACING: 0.0625
Info: NONBONDED TABLE SIZE: 705 POINTS
TCL: Setting parameter alchLambda2 to 0.2
Info: NONBONDED TABLE R-SQUARED SPACING: 0.0625
Info: NONBONDED TABLE SIZE: 705 POINTS
TCL: Running for 1500000 steps
ETITLE: TS BOND ANGLE DIHED IMPRP ELECT VDW BOUNDARY MISC KINETIC TOTAL TEMP POTENTIAL TOTALAVG TEMPAVG PRESSURE GPRESSURE VOLUME PRESSAVG GPRESSAVG
ENERGY: 0 4.6837 9.3975 9.6807 0.0000 -10944.0912 1513.1037 0.0000 0.0000 1783.8870 -7623.3386 299.9308 -9407.2257 -7623.3386 299.9308 396.2475 478.0286 30298.7761 396.2475 478.0286
ENERGY: 300000 2.8718 11.9066 9.0082 0.0000 -10722.7323 1354.5758 0.0000 0.0000 1869.5075 -7474.8623 314.3264 -9344.3698 -7537.2934 304.2001 -830.4513 -772.6029 30912.6233 -29.6291 28.3959
ENERGY: 600000 4.1365 10.4735 8.2523 0.0000 -10785.3686 1411.7192 0.0000 0.0000 1792.3045 -7558.4827 301.3460 -9350.7872 -7547.0277 302.1819 -330.0784 -280.6081 30677.0858 -107.8688 -56.8493
ENERGY: 900000 1.9295 12.9508 9.3282 0.0000 -10935.3127 1522.4754 0.0000 0.0000 1756.3749 -7632.2539 295.3051 -9388.6287 -7550.5871 301.7368 417.2122 475.9196 30315.8424 -154.2486 -93.1187
ENERGY: 1200000 1.7527 8.3140 7.1569 0.0000 -10687.7481 1365.4067 0.0000 0.0000 1761.2160 -7543.9018 296.1190 -9305.1178 -7548.0087 301.6146 -533.7017 -378.6946 30350.2089 -202.8149 -136.7814
ENERGY: 1500000 1.5743 10.9666 7.6692 0.0000 -10856.1308 1462.9049 0.0000 0.0000 1703.2103 -7669.8054 286.3663 -9373.0157 -7556.3938 300.0414 276.7617 347.1879 29967.2491 -151.6188 -87.8747
TCL: Running FEP window   5: Lambda1 0.2    Lambda2 0.25   [dLambda 0.04999999999999999]
TCL: Setting parameter firsttimestep to 0
TCL: Setting parameter alchLambda to 0.2
Info: NONBONDED TABLE R-SQUARED SPACING: 0.0625
Info: NONBONDED TABLE SIZE: 705 POINTS
TCL: Setting parameter alchLambda2 to 0.25
Info: NONBONDED TABLE R-SQUARED SPACING: 0.0625
Info: NONBONDED TABLE SIZE: 705 POINTS
TCL: Running for 1500000 steps
ETITLE: TS BOND ANGLE DIHED IMPRP ELECT VDW BOUNDARY MISC KINETIC TOTAL TEMP POTENTIAL TOTALAVG TEMPAVG PRESSURE GPRESSURE VOLUME PRESSAVG GPRESSAVG
ENERGY: 0 1.5743 10.9667 7.6692 0.0000 -10856.1326 1463.3330 0.0000 0.0000 1702.3043 -7670.2852 286.2140 -9372.5895 -7670.2852 286.2140 270.1352 355.7020 29967.2491 270.1352 355.7020
ENERGY: 300000 5.3801 10.5653 8.3325 0.0000 -10870.8146 1486.6674 0.0000 0.0000 1747.1874 -7612.6820 293.7603 -9359.8693 -7639.8478 293.0174 336.5527 375.3219 30227.2181 216.1564 270.6763
ENERGY: 600000 2.8595 10.3455 9.0858 0.0000 -10845.2185 1510.2900 0.0000 0.0000 1813.8036 -7498.8341 304.9607 -9312.6378 -7604.1676 297.2570 484.6964 556.1812 30512.5925 244.5101 295.1670
ENERGY: 900000 2.5575 11.8851 7.9256 0.0000 -10710.8427 1399.1852 0.0000 0.0000 1809.9184 -7479.3710 304.3075 -9289.2893 -7580.1081 299.3870 -476.8199 -344.2976 30749.9706 92.0392 151.1574
ENERGY: 1200000 4.2389 12.2142 7.7653 0.0000 -10895.4482 1509.2917 0.0000 0.0000 1778.5974 -7583.3408 299.0414 -9361.9382 -7573.7854 299.3148 176.7601 214.4714 30796.2938 29.8001 89.7923
ENERGY: 1500000 3.9127 10.6349 7.3836 0.0000 -10766.5547 1404.5030 0.0000 0.0000 1804.9184 -7535.2020 303.4668 -9340.1204 -7560.5368 300.3552 -354.7246 -291.1268 30550.3550 81.8018 141.4660
TCL: Running FEP window   6: Lambda1 0.25   Lambda2 0.3    [dLambda 0.04999999999999999]
TCL: Setting parameter firsttimestep to 0
TCL: Setting parameter alchLambda to 0.25
Info: NONBONDED TABLE R-SQUARED SPACING: 0.0625
Info: NONBONDED TABLE SIZE: 705 POINTS
TCL: Setting parameter alchLambda2 to 0.3
Info: NONBONDED TABLE R-SQUARED SPACING: 0.0625
Info: NONBONDED TABLE SIZE: 705 POINTS
TCL: Running for 1500000 steps
ETITLE: TS BOND ANGLE DIHED IMPRP ELECT VDW BOUNDARY MISC KINETIC TOTAL TEMP POTENTIAL TOTALAVG TEMPAVG PRESSURE GPRESSURE VOLUME PRESSAVG GPRESSAVG
ENERGY: 0 3.9127 10.6349 7.3836 0.0000 -10766.5539 1405.8934 0.0000 0.0000 1804.0211 -7534.7082 303.3160 -9338.7293 -7534.7082 303.3160 -365.1091 -275.9454 30550.3550 -365.1091 -275.9454
ENERGY: 300000 2.8839 15.4728 8.0288 0.0000 -10875.7169 1490.3676 0.0000 0.0000 1774.5092 -7584.4547 298.3540 -9358.9639 -7569.6230 302.2386 500.2014 563.3521 30383.8620 121.6099 177.9802
ENERGY: 600000 5.5918 10.5745 9.1291 0.0000 -10782.6221 1412.8098 0.0000 0.0000 1741.3543 -7603.1625 292.7796 -9344.5168 -7562.2339 301.5231 -396.1916 -319.4069 30651.9231 -27.4074 23.6904
ENERGY: 900000 6.7954 12.9358 14.6653 0.0000 -10727.2696 1421.7174 0.0000 0.0000 1816.2785 -7454.8772 305.3768 -9271.1556 -7547.6875 301.6593 22.7628 93.0330 30877.7670 -112.5739 -58.8801
ENERGY: 1200000 3.8410 7.1352 10.6271 0.0000 -10899.0780 1505.5468 0.0000 0.0000 1739.8823 -7632.0455 292.5321 -9371.9278 -7549.0656 301.0529 241.6618 325.0988 30568.4808 -68.5539 -17.7272
ENERGY: 1500000 6.0226 11.3713 7.9720 0.0000 -10865.6985 1450.8340 0.0000 0.0000 1775.8141 -7613.6845 298.5734 -9389.4986 -7552.9037 300.4598 -424.0594 -332.3933 31068.3881 -72.8914 -20.2002
TCL: Running FEP window   7: Lambda1 0.3    Lambda2 0.35   [dLambda 0.04999999999999999]
TCL: Setting parameter firsttimestep to 0
TCL: Setting parameter alchLambda to 0.3
Info: NONBONDED TABLE R-SQUARED SPACING: 0.0625
Info: NONBONDED TABLE SIZE: 705 POINTS
TCL: Setting parameter alchLambda2 to 0.35
Info: NONBONDED TABLE R-SQUARED SPACING: 0.0625
Info: NONBONDED TABLE SIZE: 705 POINTS
TCL: Running for 1500000 steps
ETITLE: TS BOND ANGLE DIHED IMPRP ELECT VDW BOUNDARY MISC KINETIC TOTAL TEMP POTENTIAL TOTALAVG TEMPAVG PRESSURE GPRESSURE VOLUME PRESSAVG GPRESSAVG
ENERGY: 0 6.0226 11.3713 7.9720 0.0000 -10865.7004 1450.6121 0.0000 0.0000 1774.9364 -7614.7860 298.4259 -9389.7224 -7614.7860 298.4259 -411.8200 -331.1462 31068.3881 -411.8200 -331.1462
ENERGY: 300000 3.1597 7.6657 10.1974 0.0000 -10836.8077 1520.3382 0.0000 0.0000 1806.8323 -7488.6144 303.7886 -9295.4467 -7544.1469 301.4415 963.6441 951.3235 30504.8530 385.0187 423.3373
ENERGY: 600000 8.3435 10.2935 8.7806 0.0000 -10934.0119 1540.2688 0.0000 0.0000 1746.5964 -7619.7291 293.6610 -9366.3255 -7550.9538 301.8727 657.1719 758.4461 30110.2888 213.7992 261.3702
ENERGY: 900000 5.7296 13.3442 7.0209 0.0000 -10898.1215 1468.6508 0.0000 0.0000 1804.9381 -7598.4379 303.4702 -9403.3760 -7562.1053 302.5192 -83.3417 35.6295 30609.3793 79.3592 133.0495
ENERGY: 1200000 3.0272 9.8723 7.9094 0.0000 -10812.7170 1411.6269 0.0000 0.0000 1766.4974 -7613.7838 297.0070 -9380.2811 -7564.0773 302.0710 -425.9236 -358.9782 30523.2945 132.0924 183.6034
ENERGY: 1500000 3.0416 11.8317 10.9320 0.0000 -10797.7031 1420.6811 0.0000 0.0000 1785.9777 -7565.2390 300.2823 -9351.2167 -7564.0480 301.4877 -324.7715 -266.9463 30397.1053 144.3868 199.1329
TCL: Running FEP window   8: Lambda1 0.35   Lambda2 0.39999999999999997 [dLambda 0.04999999999999999]
TCL: Setting parameter firsttimestep to 0
TCL: Setting parameter alchLambda to 0.35
Info: NONBONDED TABLE R-SQUARED SPACING: 0.0625
Info: NONBONDED TABLE SIZE: 705 POINTS
TCL: Setting parameter alchLambda2 to 0.39999999999999997
Info: NONBONDED TABLE R-SQUARED SPACING: 0.0625
Info: NONBONDED TABLE SIZE: 705 POINTS
TCL: Running for 1500000 steps
ETITLE: TS BOND ANGLE DIHED IMPRP ELECT VDW BOUNDARY MISC KINETIC TOTAL TEMP POTENTIAL TOTALAVG TEMPAVG PRESSURE GPRESSURE VOLUME PRESSAVG GPRESSAVG
ENERGY: 0 3.0416 11.8317 10.9320 0.0000 -10797.7027 1420.1774 0.0000 0.0000 1785.0576 -7566.6624 300.1276 -9351.7200 -7566.6624 300.1276 -352.5032 -263.4280 30397.1053 -352.5032 -263.4280
ENERGY: 300000 2.4437 10.3972 8.5124 0.0000 -10704.7794 1439.6941 0.0000 0.0000 1763.9733 -7479.7588 296.5826 -9243.7321 -7580.6556 296.6342 99.9303 138.9557 30792.1527 67.0098 116.1203
ENERGY: 600000 5.2950 11.1491 8.7796 0.0000 -10896.2134 1478.8196 0.0000 0.0000 1835.9788 -7556.1914 308.6891 -9392.1702 -7575.1937 300.1819 327.3257 368.6614 30174.9049 92.4776 139.2351
ENERGY: 900000 3.4779 10.4712 8.0583 0.0000 -10868.7664 1498.4637 0.0000 0.0000 1808.8656 -7539.4297 304.1305 -9348.2953 -7574.2345 300.0517 596.5877 643.7096 30173.3687 115.9176 166.3265
ENERGY: 1200000 4.8433 11.4937 8.8265 0.0000 -10926.6320 1561.9459 0.0000 0.0000 1822.0149 -7517.5077 306.3413 -9339.5227 -7572.3472 300.6138 825.8939 860.4753 30956.3270 167.6693 218.1703
ENERGY: 1500000 3.3624 13.3636 8.2057 0.0000 -10851.6328 1411.1424 0.0000 0.0000 1812.6287 -7602.9300 304.7632 -9415.5587 -7585.5051 299.8270 -581.4152 -497.0076 30456.8364 117.3351 175.3960
TCL: Running FEP window   9: Lambda1 0.39999999999999997 Lambda2 0.44999999999999996 [dLambda 0.04999999999999999]
TCL: Setting parameter firsttimestep to 0
TCL: Setting parameter alchLambda to 0.39999999999999997
Info: NONBONDED TABLE R-SQUARED SPACING: 0.0625
Info: NONBONDED TABLE SIZE: 705 POINTS
TCL: Setting parameter alchLambda2 to 0.44999999999999996
Info: NONBONDED TABLE R-SQUARED SPACING: 0.0625
Info: NONBONDED TABLE SIZE: 705 POINTS
TCL: Running for 1500000 steps
ETITLE: TS BOND ANGLE DIHED IMPRP ELECT VDW BOUNDARY MISC KINETIC TOTAL TEMP POTENTIAL TOTALAVG TEMPAVG PRESSURE GPRESSURE VOLUME PRESSAVG GPRESSAVG
ENERGY: 0 3.3624 13.3636 8.2057 0.0000 -10851.6326 1411.7429 0.0000 0.0000 1811.7565 -7603.2015 304.6166 -9414.9580 -7603.2015 304.6166 -562.6004 -482.8131 30456.8364 -562.6004 -482.8131
ENERGY: 300000 3.4296 12.5493 10.0783 0.0000 -10950.0203 1507.6720 0.0000 0.0000 1812.0653 -7604.2259 304.6685 -9416.2911 -7580.7015 301.3039 516.2950 575.5126 30077.2834 -225.5658 -158.4132
ENERGY: 600000 8.1442 20.9374 7.1009 0.0000 -10844.0845 1475.5098 0.0000 0.0000 1757.7718 -7574.6205 295.5399 -9332.3924 -7558.2917 299.9779 275.0249 388.7116 30277.4331 -163.3201 -84.4212
ENERGY: 900000 2.5182 14.5182 6.9972 0.0000 -10848.9569 1515.3586 0.0000 0.0000 1759.5512 -7550.0135 295.8391 -9309.5647 -7549.7537 299.6016 452.3145 502.6063 30792.8034 -21.4442 45.1336
ENERGY: 1200000 1.5999 12.2736 9.7855 0.0000 -10850.0680 1449.9967 0.0000 0.0000 1758.8578 -7617.5545 295.7225 -9376.4123 -7549.0370 300.3018 -7.9680 104.1390 30428.8350 -21.5456 54.9926
ENERGY: 1500000 2.1605 10.4349 10.5055 0.0000 -10816.8312 1472.5502 0.0000 0.0000 1801.1036 -7520.0765 302.8255 -9321.1801 -7549.7065 300.0800 262.1966 248.8955 31047.7835 -55.6524 11.0135
TCL: Running FEP window  10: Lambda1 0.44999999999999996 Lambda2 0.49999999999999994 [dLambda 0.04999999999999999]
TCL: Setting parameter firsttimestep to 0
TCL: Setting parameter alchLambda to 0.44999999999999996
Info: NONBONDED TABLE R-SQUARED SPACING: 0.0625
Info: NONBONDED TABLE SIZE: 705 POINTS
TCL: Setting parameter alchLambda2 to 0.49999999999999994
Info: NONBONDED TABLE R-SQUARED SPACING: 0.0625
Info: NONBONDED TABLE SIZE: 705 POINTS
TCL: Running for 1500000 steps
ETITLE: TS BOND ANGLE DIHED IMPRP ELECT VDW BOUNDARY MISC KINETIC TOTAL TEMP POTENTIAL TOTALAVG TEMPAVG PRESSURE GPRESSURE VOLUME PRESSAVG GPRESSAVG
ENERGY: 0 2.1605 10.4349 10.5055 0.0000 -10816.8319 1472.2587 0.0000 0.0000 1800.2156 -7521.2567 302.6761 -9321.4723 -7521.2567 302.6761 166.2881 255.2710 31047.7835 166.2881 255.2710
ENERGY: 300000 3.2046 15.7747 10.8624 0.0000 -11002.3392 1553.0214 0.0000 0.0000 1763.2624 -7656.2138 296.4631 -9419.4762 -7584.5932 302.5766 620.8613 723.8442 30424.1318 -35.4734 57.2674
ENERGY: 600000 2.5077 12.5071 7.0841 0.0000 -10780.0966 1433.9966 0.0000 0.0000 1819.4832 -7504.5179 305.9157 -9324.0011 -7571.1407 302.4240 -194.0641 -166.7117 31191.9675 -200.4688 -131.9390
ENERGY: 900000 3.8056 8.1541 10.8473 0.0000 -10660.5580 1325.3211 0.0000 0.0000 1796.1372 -7516.2926 301.9904 -9312.4298 -7569.0099 300.8318 -1377.7976 -1235.8258 31429.9723 -317.1480 -244.6911
ENERGY: 1200000 4.1926 11.4137 10.3093 0.0000 -10903.1222 1446.1967 0.0000 0.0000 1798.6764 -7632.3335 302.4174 -9431.0100 -7564.2063 301.4250 -145.2603 -40.8822 30475.0707 -130.5577 -64.2887
ENERGY: 1500000 1.4364 13.0766 7.1760 0.0000 -10836.1639 1509.8492 0.0000 0.0000 1837.1892 -7467.4365 308.8926 -9304.6257 -7560.2638 302.0636 933.9569 1044.9442 29950.0901 -69.1078 3.3315
TCL: Running FEP window  11: Lambda1 0.49999999999999994 Lambda2 0.5499999999999999 [dLambda 0.04999999999999999]
TCL: Setting parameter firsttimestep to 0
TCL: Setting parameter alchLambda to 0.49999999999999994
Info: NONBONDED TABLE R-SQUARED SPACING: 0.0625
Info: NONBONDED TABLE SIZE: 705 POINTS
TCL: Setting parameter alchLambda2 to 0.5499999999999999
Info: NONBONDED TABLE R-SQUARED SPACING: 0.0625
Info: NONBONDED TABLE SIZE: 705 POINTS
TCL: Running for 1500000 steps
ETITLE: TS BOND ANGLE DIHED IMPRP ELECT VDW BOUNDARY MISC KINETIC TOTAL TEMP POTENTIAL TOTALAVG TEMPAVG PRESSURE GPRESSURE VOLUME PRESSAVG GPRESSAVG
ENERGY: 0 1.4364 13.0766 7.1760 0.0000 -10836.1630 1510.7501 0.0000 0.0000 1836.3081 -7467.4158 308.7445 -9303.7239 -7467.4158 308.7445 969.6912 1064.2258 29950.0901 969.6912 1064.2258
ENERGY: 300000 2.4353 15.3049 8.1375 0.0000 -10713.5364 1415.4661 0.0000 0.0000 1745.9825 -7526.2100 293.5578 -9272.1925 -7546.6456 296.5675 -107.1577 -32.9852 30942.4274 229.5825 298.6872
ENERGY: 600000 3.0237 6.4167 7.7638 0.0000 -10928.4606 1491.9651 0.0000 0.0000 1818.6113 -7600.6800 305.7691 -9419.2913 -7572.5978 296.3387 125.7532 161.8779 30823.2318 93.1091 147.1447
ENERGY: 900000 2.0098 11.9040 8.1185 0.0000 -10615.2356 1303.5477 0.0000 0.0000 1805.1663 -7484.4894 303.5085 -9289.6557 -7572.1711 297.2325 -1246.2207 -1078.9485 31301.1935 -106.8877 -39.3738
ENERGY: 1200000 3.2464 7.5531 8.5743 0.0000 -10770.4698 1400.5361 0.0000 0.0000 1754.8563 -7595.7036 295.0497 -9350.5599 -7569.9385 297.6159 -509.6598 -388.4492 30913.5267 -122.5129 -55.7350
ENERGY: 1500000 5.5049 11.2243 8.8264 0.0000 -10711.2173 1347.6482 0.0000 0.0000 1841.5358 -7496.4777 309.6234 -9338.0134 -7569.1316 297.9782 -745.9504 -710.4063 30991.3285 -134.3647 -67.1568
TCL: Running FEP window  12: Lambda1 0.5499999999999999 Lambda2 0.6    [dLambda 0.050000000000000044]
TCL: Setting parameter firsttimestep to 0
TCL: Setting parameter alchLambda to 0.5499999999999999
Info: NONBONDED TABLE R-SQUARED SPACING: 0.0625
Info: NONBONDED TABLE SIZE: 705 POINTS
TCL: Setting parameter alchLambda2 to 0.6
Info: NONBONDED TABLE R-SQUARED SPACING: 0.0625
Info: NONBONDED TABLE SIZE: 705 POINTS
TCL: Running for 1500000 steps
ETITLE: TS BOND ANGLE DIHED IMPRP ELECT VDW BOUNDARY MISC KINETIC TOTAL TEMP POTENTIAL TOTALAVG TEMPAVG PRESSURE GPRESSURE VOLUME PRESSAVG GPRESSAVG
ENERGY: 0 5.5048 11.2243 8.8264 0.0000 -10711.7294 1347.1708 0.0000 0.0000 1840.6788 -7498.3243 309.4794 -9339.0031 -7498.3243 309.4794 -783.2736 -704.7564 30991.3285 -783.2736 -704.7564
ENERGY: 300000 3.1178 10.3124 7.6593 0.0000 -10931.0755 1483.4072 0.0000 0.0000 1809.5496 -7617.0292 304.2455 -9426.5788 -7595.1321 301.9264 136.9675 212.7645 30499.0639 -504.6799 -432.5071
ENERGY: 600000 4.6474 11.4178 10.8184 0.0000 -10730.6203 1410.9598 0.0000 0.0000 1762.9222 -7529.8547 296.4059 -9292.7769 -7576.3513 300.9394 -113.5315 -55.5179 30580.8303 -246.6116 -174.3711
ENERGY: 900000 0.8629 7.0266 15.6422 0.0000 -10765.9094 1436.5451 0.0000 0.0000 1784.2859 -7521.5468 299.9978 -9305.8327 -7568.0598 300.7653 -49.4638 19.1838 30955.4712 -169.5816 -97.5932
ENERGY: 1200000 2.7853 10.2109 10.0335 0.0000 -11041.6023 1549.3838 0.0000 0.0000 1824.0501 -7645.1388 306.6835 -9469.1889 -7565.4812 300.9456 465.0992 542.9627 30315.4642 -141.3546 -75.3574
ENERGY: 1500000 5.6035 9.5416 11.1169 0.0000 -10683.9988 1399.3599 0.0000 0.0000 1767.6186 -7490.7583 297.1955 -9258.3769 -7562.2323 301.2795 121.0181 172.2579 30424.1934 -70.5267 -4.2234
TCL: Running FEP window  13: Lambda1 0.6    Lambda2 0.65   [dLambda 0.050000000000000044]
TCL: Setting parameter firsttimestep to 0
TCL: Setting parameter alchLambda to 0.6
Info: NONBONDED TABLE R-SQUARED SPACING: 0.0625
Info: NONBONDED TABLE SIZE: 705 POINTS
TCL: Setting parameter alchLambda2 to 0.65
Info: NONBONDED TABLE R-SQUARED SPACING: 0.0625
Info: NONBONDED TABLE SIZE: 705 POINTS
TCL: Running for 1500000 steps
ETITLE: TS BOND ANGLE DIHED IMPRP ELECT VDW BOUNDARY MISC KINETIC TOTAL TEMP POTENTIAL TOTALAVG TEMPAVG PRESSURE GPRESSURE VOLUME PRESSAVG GPRESSAVG
ENERGY: 0 5.6035 9.5416 11.1169 0.0000 -10683.6030 1399.4156 0.0000 0.0000 1766.7401 -7491.1854 297.0478 -9257.9255 -7491.1854 297.0478 92.8913 188.7606 30424.1934 92.8913 188.7606
ENERGY: 300000 1.2176 5.6708 8.3161 0.0000 -10761.0626 1336.2156 0.0000 0.0000 1829.7672 -7579.8753 307.6447 -9409.6425 -7546.8533 300.2034 -1012.8346 -942.0941 30662.4687 -573.3901 -493.9884
ENERGY: 600000 4.1147 10.9930 8.9613 0.0000 -10742.3567 1414.6929 0.0000 0.0000 1720.5214 -7583.0733 289.2769 -9303.5947 -7562.3551 296.5072 -217.2667 -193.8764 30984.7868 -514.5776 -440.0083
ENERGY: 900000 1.7007 9.3570 7.0436 0.0000 -10727.0113 1362.0019 0.0000 0.0000 1751.2677 -7595.6404 294.4464 -9346.9081 -7564.0470 297.7742 -706.0032 -575.7554 30928.5036 -487.1947 -410.3187
ENERGY: 1200000 2.3613 12.6651 8.8802 0.0000 -10799.8897 1480.7109 0.0000 0.0000 1858.1676 -7437.1047 312.4198 -9295.2723 -7551.8004 299.4524 652.1975 669.7543 30445.9609 -231.8468 -160.2900
ENERGY: 1500000 2.0789 13.3484 8.8772 0.0000 -10906.2140 1479.1606 0.0000 0.0000 1780.4825 -7622.2665 299.3583 -9402.7489 -7556.1747 299.2618 -62.9654 36.9802 30464.7445 -227.0757 -155.6507
TCL: Running FEP window  14: Lambda1 0.65   Lambda2 0.7000000000000001 [dLambda 0.050000000000000044]
TCL: Setting parameter firsttimestep to 0
TCL: Setting parameter alchLambda to 0.65
Info: NONBONDED TABLE R-SQUARED SPACING: 0.0625
Info: NONBONDED TABLE SIZE: 705 POINTS
TCL: Setting parameter alchLambda2 to 0.7000000000000001
Info: NONBONDED TABLE R-SQUARED SPACING: 0.0625
Info: NONBONDED TABLE SIZE: 705 POINTS
TCL: Running for 1500000 steps
ETITLE: TS BOND ANGLE DIHED IMPRP ELECT VDW BOUNDARY MISC KINETIC TOTAL TEMP POTENTIAL TOTALAVG TEMPAVG PRESSURE GPRESSURE VOLUME PRESSAVG GPRESSAVG
ENERGY: 0 2.0789 13.3484 8.8772 0.0000 -10906.6526 1478.9746 0.0000 0.0000 1779.5682 -7623.8054 299.2046 -9403.3736 -7623.8054 299.2046 -40.8202 49.7809 30464.7445 -40.8202 49.7809
ENERGY: 300000 3.1279 12.5481 9.2480 0.0000 -10686.9895 1374.8626 0.0000 0.0000 1818.7063 -7468.4966 305.7850 -9287.2029 -7617.7723 299.7701 -115.2369 -66.9096 30758.9108 -272.1172 -205.3874
ENERGY: 600000 2.6395 12.8070 8.6678 0.0000 -10807.8094 1479.6601 0.0000 0.0000 1743.0282 -7561.0069 293.0610 -9304.0351 -7609.9453 298.7155 303.8383 295.5414 30760.2783 -195.9730 -143.5921
ENERGY: 900000 5.1683 7.0099 7.5369 0.0000 -10844.8427 1429.6309 0.0000 0.0000 1791.7488 -7603.7480 301.2526 -9395.4968 -7619.2321 298.9456 -317.3307 -263.8120 30886.7566 -120.3497 -65.2166
ENERGY: 1200000 4.7615 11.9648 6.8572 0.0000 -10929.5413 1575.0648 0.0000 0.0000 1730.9090 -7599.9840 291.0234 -9330.8930 -7603.0225 298.4597 785.8833 831.0161 30659.9454 -46.7690 12.3076
ENERGY: 1500000 4.0058 11.8076 7.4423 0.0000 -10775.7464 1478.8982 0.0000 0.0000 1773.3676 -7500.2249 298.1621 -9273.5925 -7593.6083 298.9135 611.6005 691.5087 30444.5509 36.8729 94.3707
TCL: Running FEP window  15: Lambda1 0.7000000000000001 Lambda2 0.7500000000000001 [dLambda 0.050000000000000044]
TCL: Setting parameter firsttimestep to 0
TCL: Setting parameter alchLambda to 0.7000000000000001
Info: NONBONDED TABLE R-SQUARED SPACING: 0.0625
Info: NONBONDED TABLE SIZE: 705 POINTS
TCL: Setting parameter alchLambda2 to 0.7500000000000001
Info: NONBONDED TABLE R-SQUARED SPACING: 0.0625
Info: NONBONDED TABLE SIZE: 705 POINTS
TCL: Running for 1500000 steps
ETITLE: TS BOND ANGLE DIHED IMPRP ELECT VDW BOUNDARY MISC KINETIC TOTAL TEMP POTENTIAL TOTALAVG TEMPAVG PRESSURE GPRESSURE VOLUME PRESSAVG GPRESSAVG
ENERGY: 0 4.0058 11.8076 7.4423 0.0000 -10776.2501 1478.8885 0.0000 0.0000 1772.4862 -7501.6196 298.0139 -9274.1059 -7501.6196 298.0139 630.1498 707.2524 30444.5509 630.1498 707.2524
ENERGY: 300000 3.7355 13.0278 10.2672 0.0000 -10827.2542 1469.1174 0.0000 0.0000 1776.6855 -7554.4207 298.7200 -9331.1063 -7587.1845 295.9510 336.4450 397.1094 30616.3548 335.9588 383.2929
ENERGY: 600000 3.7062 11.0517 9.0229 0.0000 -10777.9146 1352.1224 0.0000 0.0000 1824.7623 -7577.2491 306.8033 -9402.0114 -7591.3146 298.4926 -860.9987 -800.9331 30854.1612 288.2675 332.3974
ENERGY: 900000 3.5195 11.9996 7.9796 0.0000 -10777.5354 1390.2628 0.0000 0.0000 1779.8444 -7583.9297 299.2511 -9363.7741 -7594.1341 298.9252 -497.7587 -455.7582 31321.1052 69.6736 114.3651
ENERGY: 1200000 0.9838 13.8077 10.1679 0.0000 -10804.7796 1468.3351 0.0000 0.0000 1744.8283 -7566.6568 293.3637 -9311.4851 -7591.1239 298.4701 98.3278 197.8618 31151.5748 81.5971 132.0888
ENERGY: 1500000 2.5981 9.2525 8.7491 0.0000 -10697.5050 1367.9475 0.0000 0.0000 1793.8070 -7515.1508 301.5986 -9308.9578 -7580.0800 298.2577 -324.9262 -302.3289 30414.4155 -38.6914 9.1908
TCL: Running FEP window  16: Lambda1 0.7500000000000001 Lambda2 0.8000000000000002 [dLambda 0.050000000000000044]
TCL: Setting parameter firsttimestep to 0
TCL: Setting parameter alchLambda to 0.7500000000000001
Info: NONBONDED TABLE R-SQUARED SPACING: 0.0625
Info: NONBONDED TABLE SIZE: 705 POINTS
TCL: Setting parameter alchLambda2 to 0.8000000000000002
Info: NONBONDED TABLE R-SQUARED SPACING: 0.0625
Info: NONBONDED TABLE SIZE: 705 POINTS
TCL: Running for 1500000 steps
ETITLE: TS BOND ANGLE DIHED IMPRP ELECT VDW BOUNDARY MISC KINETIC TOTAL TEMP POTENTIAL TOTALAVG TEMPAVG PRESSURE GPRESSURE VOLUME PRESSAVG GPRESSAVG
ENERGY: 0 2.5981 9.2525 8.7491 0.0000 -10698.6451 1368.3187 0.0000 0.0000 1792.9267 -7516.8000 301.4506 -9309.7267 -7516.8000 301.4506 -359.8428 -279.1319 30414.4155 -359.8428 -279.1319
ENERGY: 300000 4.2066 15.1304 8.2867 0.0000 -10972.1291 1537.7404 0.0000 0.0000 1837.2086 -7569.5564 308.8959 -9406.7650 -7528.7448 302.6897 935.2236 989.7245 30081.6917 -3.7147 56.1434
ENERGY: 600000 3.5497 14.1069 10.1050 0.0000 -10779.0696 1393.4434 0.0000 0.0000 1851.5171 -7506.3474 311.3016 -9357.8645 -7532.2992 304.5050 -262.0221 -147.1889 30823.4418 -105.1077 -44.5511
ENERGY: 900000 4.4512 17.6742 10.0354 0.0000 -10785.7212 1332.7324 0.0000 0.0000 1728.4955 -7692.3326 290.6176 -9420.8281 -7563.8972 301.3216 -937.0053 -886.8251 30635.7446 -95.5288 -38.3759
ENERGY: 1200000 2.8623 12.2904 8.0251 0.0000 -10849.8368 1436.7026 0.0000 0.0000 1802.2458 -7587.7106 303.0175 -9389.9564 -7571.7189 301.0669 -250.3086 -217.8233 30729.6919 -72.5469 -17.0284
ENERGY: 1500000 1.7731 7.6969 8.4441 0.0000 -10943.1942 1505.3272 0.0000 0.0000 1847.1706 -7572.7823 310.5708 -9419.9529 -7569.1567 301.7207 616.9018 724.9460 30343.7179 -59.5278 5.7977
TCL: Running FEP window  17: Lambda1 0.8000000000000002 Lambda2 0.8500000000000002 [dLambda 0.050000000000000044]
TCL: Setting parameter firsttimestep to 0
TCL: Setting parameter alchLambda to 0.8000000000000002
Info: NONBONDED TABLE R-SQUARED SPACING: 0.0625
Info: NONBONDED TABLE SIZE: 705 POINTS
TCL: Setting parameter alchLambda2 to 0.8500000000000002
Info: NONBONDED TABLE R-SQUARED SPACING: 0.0625
Info: NONBONDED TABLE SIZE: 705 POINTS
TCL: Running for 1500000 steps
ETITLE: TS BOND ANGLE DIHED IMPRP ELECT VDW BOUNDARY MISC KINETIC TOTAL TEMP POTENTIAL TOTALAVG TEMPAVG PRESSURE GPRESSURE VOLUME PRESSAVG GPRESSAVG
ENERGY: 0 1.7731 7.6969 8.4441 0.0000 -10943.9405 1505.7195 0.0000 0.0000 1846.2849 -7574.0220 310.4219 -9420.3069 -7574.0220 310.4219 648.2822 745.6136 30343.7179 648.2822 745.6136
ENERGY: 300000 6.8590 16.8635 11.5628 0.0000 -10826.0337 1431.8320 0.0000 0.0000 1773.8858 -7585.0306 298.2492 -9358.9164 -7579.5669 302.5571 -151.5456 -145.3843 31111.0788 148.1983 206.5628
ENERGY: 600000 5.2706 12.9432 10.0861 0.0000 -10704.9116 1375.1637 0.0000 0.0000 1836.8664 -7464.5817 308.8384 -9301.4481 -7567.6862 303.8383 -506.0742 -448.0428 30834.6172 -48.4545 -2.2709
ENERGY: 900000 3.0282 14.5861 7.0357 0.0000 -10728.6954 1402.1695 0.0000 0.0000 1826.6004 -7475.2756 307.1123 -9301.8760 -7564.8572 303.4844 -87.5240 -12.0226 31122.8328 -106.7692 -69.0341
ENERGY: 1200000 3.3545 13.6937 8.1076 0.0000 -10735.2624 1384.9771 0.0000 0.0000 1837.0744 -7488.0551 308.8733 -9325.1295 -7564.5670 302.9237 -131.3876 -7.1309 30306.9955 -64.9909 -17.9678
ENERGY: 1500000 3.8189 8.6178 10.2361 0.0000 -10754.5590 1411.1741 0.0000 0.0000 1801.2793 -7519.4329 302.8550 -9320.7121 -7558.1145 302.6789 -553.6835 -536.5095 31555.7619 -113.8996 -60.4205
TCL: Running FEP window  18: Lambda1 0.8500000000000002 Lambda2 0.9000000000000002 [dLambda 0.050000000000000044]
TCL: Setting parameter firsttimestep to 0
TCL: Setting parameter alchLambda to 0.8500000000000002
Info: NONBONDED TABLE R-SQUARED SPACING: 0.0625
Info: NONBONDED TABLE SIZE: 705 POINTS
TCL: Setting parameter alchLambda2 to 0.9000000000000002
Info: NONBONDED TABLE R-SQUARED SPACING: 0.0625
Info: NONBONDED TABLE SIZE: 705 POINTS
TCL: Running for 1500000 steps
ETITLE: TS BOND ANGLE DIHED IMPRP ELECT VDW BOUNDARY MISC KINETIC TOTAL TEMP POTENTIAL TOTALAVG TEMPAVG PRESSURE GPRESSURE VOLUME PRESSAVG GPRESSAVG
ENERGY: 0 3.8190 8.6178 10.2361 0.0000 -10755.8704 1411.4175 0.0000 0.0000 1800.4165 -7521.3636 302.7099 -9321.7801 -7521.3636 302.7099 -610.4294 -519.1542 31555.7619 -610.4294 -519.1542
ENERGY: 300000 4.0496 12.0138 11.5721 0.0000 -10823.1327 1510.9053 0.0000 0.0000 1815.7829 -7468.8090 305.2935 -9284.5919 -7539.0563 300.9496 922.4108 1002.7051 30817.8338 -1.1917 100.0028
ENERGY: 600000 3.7024 14.2335 9.7904 0.0000 -10924.4946 1475.0852 0.0000 0.0000 1797.4176 -7624.2656 302.2057 -9421.6832 -7545.2512 302.0776 192.7307 284.8203 30433.5094 106.1019 184.3702
ENERGY: 900000 2.1389 10.1052 11.5407 0.0000 -10936.4753 1527.8895 0.0000 0.0000 1783.1375 -7601.6634 299.8048 -9384.8010 -7566.1792 301.3523 598.6194 625.9291 30722.3946 102.5677 172.9935
ENERGY: 1200000 2.1246 14.3576 7.8531 0.0000 -10830.2269 1455.6864 0.0000 0.0000 1819.5974 -7530.6079 305.9349 -9350.2053 -7557.8463 301.3888 16.3079 93.5313 30941.0627 -46.3165 24.0298
ENERGY: 1500000 3.3552 10.9062 10.9077 0.0000 -10743.7013 1438.2793 0.0000 0.0000 1812.8479 -7467.4051 304.8000 -9280.2530 -7561.0022 300.8435 194.4331 339.3511 30671.6281 -26.4351 47.1817
TCL: Running FEP window  19: Lambda1 0.9000000000000002 Lambda2 0.9500000000000003 [dLambda 0.050000000000000044]
TCL: Setting parameter firsttimestep to 0
TCL: Setting parameter alchLambda to 0.9000000000000002
Info: NONBONDED TABLE R-SQUARED SPACING: 0.0625
Info: NONBONDED TABLE SIZE: 705 POINTS
TCL: Setting parameter alchLambda2 to 0.9500000000000003
Info: NONBONDED TABLE R-SQUARED SPACING: 0.0625
Info: NONBONDED TABLE SIZE: 705 POINTS
TCL: Running for 1500000 steps
ETITLE: TS BOND ANGLE DIHED IMPRP ELECT VDW BOUNDARY MISC KINETIC TOTAL TEMP POTENTIAL TOTALAVG TEMPAVG PRESSURE GPRESSURE VOLUME PRESSAVG GPRESSAVG
ENERGY: 0 3.3552 10.9062 10.9077 0.0000 -10745.4385 1438.9354 0.0000 0.0000 1811.9137 -7469.4203 304.6430 -9281.3341 -7469.4203 304.6430 263.1205 360.0203 30671.6281 263.1205 360.0203
ENERGY: 300000 3.9945 9.7772 7.9575 0.0000 -10917.7124 1484.1927 0.0000 0.0000 1680.5138 -7731.2767 282.5503 -9411.7905 -7575.1606 296.9702 250.5350 392.6341 30389.4642 113.1655 167.9521
ENERGY: 600000 2.9106 8.2021 11.3503 0.0000 -10829.2464 1421.9516 0.0000 0.0000 1828.5952 -7556.2367 307.4477 -9384.8319 -7582.3330 298.6378 -235.0058 -200.6507 30874.7283 41.1874 83.0508
ENERGY: 900000 2.1567 11.4010 9.9545 0.0000 -10951.1563 1514.1288 0.0000 0.0000 1804.9165 -7608.5988 303.4665 -9413.5153 -7580.5006 299.1855 606.7449 683.0767 30332.8913 -53.5370 -1.9018
ENERGY: 1200000 1.5642 10.2250 8.2077 0.0000 -11018.7550 1501.9816 0.0000 0.0000 1799.8491 -7696.9276 302.6145 -9496.7766 -7585.4408 299.2741 414.6634 476.3606 30307.5879 5.0686 62.0458
ENERGY: 1500000 3.1385 11.2733 7.3182 0.0000 -10883.4663 1491.2433 0.0000 0.0000 1735.3211 -7635.1719 291.7652 -9370.4929 -7579.4587 299.8208 186.3574 245.7159 30660.9230 20.3618 81.3899
TCL: Running FEP window  20: Lambda1 0.9500000000000003 Lambda2 1.0    [dLambda 0.04999999999999971]
TCL: Setting parameter firsttimestep to 0
TCL: Setting parameter alchLambda to 0.9500000000000003
Info: NONBONDED TABLE R-SQUARED SPACING: 0.0625
Info: NONBONDED TABLE SIZE: 705 POINTS
TCL: Setting parameter alchLambda2 to 1.0
Info: NONBONDED TABLE R-SQUARED SPACING: 0.0625
Info: NONBONDED TABLE SIZE: 705 POINTS
TCL: Running for 1500000 steps
ETITLE: TS BOND ANGLE DIHED IMPRP ELECT VDW BOUNDARY MISC KINETIC TOTAL TEMP POTENTIAL TOTALAVG TEMPAVG PRESSURE GPRESSURE VOLUME PRESSAVG GPRESSAVG
ENERGY: 0 3.1385 11.2733 7.3182 0.0000 -10886.3400 1492.3819 0.0000 0.0000 1734.4069 -7637.8211 291.6115 -9372.2280 -7637.8211 291.6115 198.1552 273.7532 30660.9230 198.1552 273.7532
ENERGY: 300000 3.4447 13.4694 10.0527 0.0000 -10669.1531 1369.5055 0.0000 0.0000 1797.3260 -7475.3548 302.1903 -9272.6808 -7589.4705 300.0151 -162.5712 -81.6642 30558.1797 -90.5618 -27.2786
ENERGY: 600000 7.4808 9.3651 7.6677 0.0000 -10830.6585 1488.7289 0.0000 0.0000 1751.0972 -7566.3187 294.4177 -9317.4159 -7593.2162 298.9890 457.2829 526.0468 30560.9890 65.0377 125.3814
ENERGY: 900000 3.1893 14.7792 10.1019 0.0000 -10847.3960 1424.2759 0.0000 0.0000 1843.0485 -7552.0012 309.8778 -9395.0497 -7575.8173 301.1897 -73.5150 -7.9430 30287.1746 34.4150 100.5082
ENERGY: 1200000 1.5512 16.6294 8.6995 0.0000 -10911.6130 1403.4293 0.0000 0.0000 1796.2178 -7685.0857 302.0040 -9481.3035 -7582.9551 301.4728 -606.2307 -520.3406 30393.0086 -86.6720 -15.2947
ENERGY: 1500000 7.2740 10.8989 9.5988 0.0000 -10760.1674 1389.5082 0.0000 0.0000 1767.3030 -7575.5844 297.1424 -9342.8874 -7589.1763 300.8387 -645.4072 -530.9339 30890.8838 -111.2824 -44.6818
TCL: Exiting due to exit command.
