Info: SIMULATION PARAMETERS:
Info: TIMESTEP               2
Info: NUMBER OF STEPS        0
Info: STEPS PER CYCLE        10
Info: PERIODIC CELL BASIS 1  35.0118 0 0
Info: PERIODIC CELL BASIS 2  0 30.358 0
Info: PERIODIC CELL BASIS 3  0 0 29.3195
Info: PERIODIC CELL CENTER   0 0 0
Info: WRAPPING WATERS AROUND PERIODIC BOUNDARIES ON OUTPUT.
Info: WRAPPING ALL CLUSTERS AROUND PERIODIC BOUNDARIES ON OUTPUT.
Info: FIRST LDB TIMESTEP     50
Info: LAST LDB TIMESTEP     -1
Info: HOM BACKGROUND SCALING 1
Info: PME BACKGROUND SCALING 1
Info: MIN ATOMS PER PATCH    40
Info: EMPTY PATCH LOAD       40 ATOMS
Info: VELOCITY FILE          mobley_7913234_equil.vel
Info: CENTER OF MASS MOVING INITIALLY? NO
Info: DIELECTRIC             1
Info: EXCLUDE                SCALED ONE-FOUR
Info: 1-4 ELECTROSTATICS SCALED BY 0.833333
Info: MODIFIED 1-4 VDW PARAMETERS WILL BE USED
Info: DCD FILENAME           mobley_7913234_prod.dcd
Info: DCD FREQUENCY          100000
Info: DCD FIRST STEP         100000
Info: DCD FILE WILL CONTAIN UNIT CELL DATA
Info: XST FILENAME           mobley_7913234_prod.xst
Info: XST FREQUENCY          100000
Info: NO VELOCITY DCD OUTPUT
Info: NO FORCE DCD OUTPUT
Info: OUTPUT FILENAME        mobley_7913234_prod
Info: BINARY OUTPUT FILES WILL BE USED
Info: RESTART FILENAME       mobley_7913234_prod.restart
Info: RESTART FREQUENCY      100000
Info: BINARY RESTART FILES WILL BE USED
Info: CUTOFF                 9
Info: PAIRLIST DISTANCE      11
Info: PAIRLIST SHRINK RATE   0.01
Info: PAIRLIST GROW RATE     0.01
Info: PAIRLIST TRIGGER       0.3
Info: PAIRLISTS PER CYCLE    2
Info: PAIRLISTS ENABLED
Info: MARGIN                 2
Info: HYDROGEN GROUP CUTOFF  2.5
Info: PATCH DIMENSION        15.5
Info: ENERGY OUTPUT STEPS    100000
Info: ENERGY EVALUATION STEPS    100000
Info: OUTPUT ENERGY PRECISION 4
Info: CROSSTERM ENERGY INCLUDED IN DIHEDRAL
Info: TIMING OUTPUT STEPS    1000000
Info: PRESSURE OUTPUT STEPS  100000
Info: ALCHEMICAL FEP ON
Info: FEP CURRENT LAMBDA VALUE     1
Info: FEP COMPARISON LAMBDA VALUE  0.95
Info: FEP INTRA-ALCHEMICAL NON-BONDED INTERACTIONS WILL BE RETAINED
Info: FEP INTRA-ALCHEMICAL BONDED INTERACTIONS WILL BE RETAINED
Info: FEP VDW SHIFTING COEFFICIENT 5
Info: FEP ELEC. ACTIVE FOR ANNIHILATED PARTICLES BETWEEN LAMBDA = 0 AND LAMBDA = 0.5
Info: FEP ELEC. ACTIVE FOR EXNIHILATED PARTICLES BETWEEN LAMBDA = 0.5 AND LAMBDA = 1
Info: FEP VDW ACTIVE FOR ANNIHILATED PARTICLES BETWEEN LAMBDA = 0 AND LAMBDA = 1
Info: FEP VDW ACTIVE FOR EXNIHILATED PARTICLES BETWEEN LAMBDA = 0 AND LAMBDA = 1
Info: FEP BOND ACTIVE FOR ANNIHILATED PARTICLES BETWEEN LAMBDA = 1 AND LAMBDA = 1
Info: FEP BOND ACTIVE FOR EXNIHILATED PARTICLES BETWEEN LAMBDA = 0 AND LAMBDA = 0
Info: LANGEVIN DYNAMICS ACTIVE
Info: LANGEVIN TEMPERATURE   300
Info: LANGEVIN USING BBK INTEGRATOR
Info: LANGEVIN DAMPING COEFFICIENT IS 1 INVERSE PS
Info: LANGEVIN DYNAMICS APPLIED TO HYDROGENS
Info: LANGEVIN PISTON PRESSURE CONTROL ACTIVE
Info:        TARGET PRESSURE IS 1.01325 BAR
Info:     OSCILLATION PERIOD IS 50 FS
Info:             DECAY TIME IS 25 FS
Info:     PISTON TEMPERATURE IS 300 K
Info:       PRESSURE CONTROL IS GROUP-BASED
Info:    INITIAL STRAIN RATE IS 0.000259632 0.000259632 0.000259632
Info:       CELL FLUCTUATION IS ISOTROPIC
Info: PARTICLE MESH EWALD (PME) ACTIVE
Info: PME TOLERANCE               1e-06
Info: PME EWALD COEFFICIENT       0.348832
Info: PME INTERPOLATION ORDER     4
Info: PME GRID DIMENSIONS         36 32 32
Info: PME MAXIMUM GRID SPACING    1
Info: PME CALCULATION WILL BE PERFORMED ON GPU
Info: FULL ELECTROSTATIC EVALUATION FREQUENCY      2
Info: USING VERLET I (r-RESPA) MTS SCHEME.
Info: C1 SPLITTING OF LONG RANGE ELECTROSTATICS
Info: PLACING ATOMS IN PATCHES BY HYDROGEN GROUPS
Info: RIGID BONDS TO HYDROGEN : ALL
Info:         ERROR TOLERANCE : 1e-08
Info:          MAX ITERATIONS : 100
Info: RIGID WATER USING SETTLE ALGORITHM
Info: RANDOM NUMBER SEED     1744022405
Info: USE HYDROGEN BONDS?    NO
Info: Using AMBER format force field!
Info: AMBER PARM FILE        mobley_7913234.prmtop
Info: COORDINATE PDB         mobley_7913234.pdb
Info: Exclusions will be read from PARM file!
Info: SCNB (VDW SCALING)     2
Info: USING ARITHMETIC MEAN TO COMBINE L-J SIGMA PARAMETERS
Info: BINARY COORDINATES     mobley_7913234_equil.coor
Info: SUMMARY OF PARAMETERS:
Info: 8 BONDS
Info: 11 ANGLES
Info:   11 HARMONIC
Info:   0 COSINE-BASED
Info: 14 DIHEDRAL
Info: 0 IMPROPER
Info: 0 CROSSTERM
Info: 0 VDW
Info: 28 VDW_PAIRS
Info: 0 NBTHOLE_PAIRS
Info: To read alchdata from file: mobley_7913234.pdb
Info: To read alchflag data from column: 5
Info: STRUCTURE SUMMARY:
Info: 2998 ATOMS
Info: 2997 BONDS
Info: 44 ANGLES
Info: 69 DIHEDRALS
Info: 0 IMPROPERS
Info: 0 CROSSTERMS
Info: 3095 EXCLUSIONS
Info: 2989 RIGID BONDS
Info: ALCH: 0 ATOMS TO DISAPPEAR IN FINAL STATE
Info: ALCH: 25 ATOMS TO APPEAR IN FINAL STATE
Info: 6005 DEGREES OF FREEDOM
Info: 1000 HYDROGEN GROUPS
Info: 4 ATOMS IN LARGEST HYDROGEN GROUP
Info: 1000 MIGRATION GROUPS
Info: 4 ATOMS IN LARGEST MIGRATION GROUP
Info: TOTAL MASS = 17986.1 amu
Info: TOTAL CHARGE = -0.000300016 e
Info: MASS DENSITY = 0.958409 g/cm^3
Info: ATOM DENSITY = 0.0962027 atoms/A^3
Info: ADDED 0 IMPLICIT EXCLUSIONS
Info: NONBONDED TABLE R-SQUARED SPACING: 0.0625
Info: NONBONDED TABLE SIZE: 705 POINTS
Info: REMOVING COM VELOCITY 0.154319 -0.0217002 -0.00423176
Info: Use 3D box decompostion in PME FFT.
Info: Updated CUDA force table with 4096 elements.
Info: Updated CUDA LJ table with 7 x 7 elements.
Info: Found 26 unique exclusion lists needing 88 bytes
TCL: Running for 1500000 steps
ETITLE: TS BOND ANGLE DIHED IMPRP ELECT VDW BOUNDARY MISC KINETIC TOTAL TEMP POTENTIAL TOTALAVG TEMPAVG PRESSURE GPRESSURE VOLUME PRESSAVG GPRESSAVG
ENERGY: 0 2.0327 7.7392 5.8845 0.0000 -10738.2475 1410.5659 0.0000 0.0000 1787.5154 -7524.5098 299.5899 -9312.0252 -7524.5098 299.5899 -355.1357 -265.5431 31163.3731 -355.1357 -265.5431
ENERGY: 300000 2.2858 13.8874 5.2891 0.0000 -10895.9819 1451.0131 0.0000 0.0000 1800.8411 -7622.6654 301.8233 -9423.5064 -7511.2648 300.8316 45.6189 52.9436 30567.7217 -336.3261 -265.4774
ENERGY: 600000 2.7312 7.4924 5.1935 0.0000 -10938.5049 1483.4936 0.0000 0.0000 1791.3951 -7648.1991 300.2401 -9439.5942 -7550.9522 300.2266 -143.5134 -85.0615 30904.4232 -300.4332 -232.8640
ENERGY: 900000 1.5941 13.6730 5.4153 0.0000 -10766.4545 1416.9137 0.0000 0.0000 1803.1511 -7525.7073 302.2105 -9328.8584 -7540.7024 300.5432 -171.6945 -50.8178 30709.9107 -322.9879 -246.9091
ENERGY: 1200000 3.2598 9.9637 6.1174 0.0000 -10775.6414 1408.4125 0.0000 0.0000 1766.6228 -7581.2653 296.0883 -9347.8880 -7552.3526 300.3549 -318.6325 -333.1650 31185.4329 -258.1264 -182.1333
ENERGY: 1500000 1.9440 10.0066 5.1577 0.0000 -10787.3958 1425.2874 0.0000 0.0000 1817.8766 -7527.1236 304.6785 -9345.0001 -7560.8005 300.0210 -185.5753 -105.0912 31267.6747 -215.8039 -140.1315
TCL: Running FEP window   2: Lambda1 0.95   Lambda2 0.8999999999999999 [dLambda -0.050000000000000044]
TCL: Setting parameter firsttimestep to 0
TCL: Setting parameter alchLambda to 0.95
Info: NONBONDED TABLE R-SQUARED SPACING: 0.0625
Info: NONBONDED TABLE SIZE: 705 POINTS
TCL: Setting parameter alchLambda2 to 0.8999999999999999
Info: NONBONDED TABLE R-SQUARED SPACING: 0.0625
Info: NONBONDED TABLE SIZE: 705 POINTS
TCL: Running for 1500000 steps
ETITLE: TS BOND ANGLE DIHED IMPRP ELECT VDW BOUNDARY MISC KINETIC TOTAL TEMP POTENTIAL TOTALAVG TEMPAVG PRESSURE GPRESSURE VOLUME PRESSAVG GPRESSAVG
ENERGY: 0 1.9440 10.0066 5.1577 0.0000 -10785.1318 1422.9287 0.0000 0.0000 1817.0517 -7528.0432 304.5402 -9345.0949 -7528.0432 304.5402 -215.5529 -141.7972 31267.6747 -215.5529 -141.7972
ENERGY: 300000 1.4936 11.8040 6.0092 0.0000 -10969.2370 1543.0525 0.0000 0.0000 1773.0786 -7633.7991 297.1703 -9406.8777 -7617.3989 298.5537 829.6763 866.8078 30210.0628 410.5689 494.5781
ENERGY: 600000 4.8003 10.7779 6.6252 0.0000 -10880.1920 1469.8855 0.0000 0.0000 1727.5639 -7660.5391 289.5420 -9388.1031 -7620.4077 297.1337 16.9928 46.0428 31064.0094 316.5042 375.4243
ENERGY: 900000 4.2806 13.2515 6.1244 0.0000 -10839.7932 1469.8638 0.0000 0.0000 1785.2119 -7561.0610 299.2038 -9346.2729 -7601.6279 298.4644 234.7275 288.4660 31006.9427 147.8753 197.9403
ENERGY: 1200000 4.7491 12.6484 7.7387 0.0000 -10721.4670 1392.7503 0.0000 0.0000 1827.4509 -7476.1296 306.2831 -9303.5805 -7592.4589 299.2750 -705.9312 -633.7886 31298.5032 36.0235 82.0941
ENERGY: 1500000 3.3528 12.2575 5.9113 0.0000 -10920.4780 1483.3263 0.0000 0.0000 1796.8738 -7618.7563 301.1584 -9415.6301 -7579.0818 299.6755 34.7950 60.9123 30882.7531 88.7808 133.8493
TCL: Running FEP window   3: Lambda1 0.8999999999999999 Lambda2 0.8499999999999999 [dLambda -0.050000000000000044]
TCL: Setting parameter firsttimestep to 0
TCL: Setting parameter alchLambda to 0.8999999999999999
Info: NONBONDED TABLE R-SQUARED SPACING: 0.0625
Info: NONBONDED TABLE SIZE: 705 POINTS
TCL: Setting parameter alchLambda2 to 0.8499999999999999
Info: NONBONDED TABLE R-SQUARED SPACING: 0.0625
Info: NONBONDED TABLE SIZE: 705 POINTS
TCL: Running for 1500000 steps
ETITLE: TS BOND ANGLE DIHED IMPRP ELECT VDW BOUNDARY MISC KINETIC TOTAL TEMP POTENTIAL TOTALAVG TEMPAVG PRESSURE GPRESSURE VOLUME PRESSAVG GPRESSAVG
ENERGY: 0 3.3528 12.2575 5.9113 0.0000 -10918.8580 1482.8777 0.0000 0.0000 1795.9281 -7618.5307 300.9999 -9414.4588 -7618.5307 300.9999 -37.5268 45.7272 30882.7531 -37.5268 45.7272
ENERGY: 300000 5.0252 9.0664 4.2184 0.0000 -10674.5165 1335.8465 0.0000 0.0000 1776.1403 -7544.2197 297.6834 -9320.3601 -7584.4043 298.9035 -713.5850 -681.3319 30920.2215 -223.1327 -154.0947
ENERGY: 600000 3.4588 11.6316 6.6711 0.0000 -10873.5830 1463.1023 0.0000 0.0000 1756.9908 -7631.7284 294.4739 -9388.7192 -7576.4991 298.8500 -91.1473 -60.5839 31191.4108 -279.1233 -203.8824
ENERGY: 900000 1.6768 7.5367 5.2928 0.0000 -10836.9982 1495.1280 0.0000 0.0000 1792.7805 -7534.5835 300.4723 -9327.3640 -7550.2619 300.7411 420.1447 517.5601 30792.6050 -221.7307 -153.6402
ENERGY: 1200000 2.8830 10.0168 5.0295 0.0000 -10674.6264 1385.2806 0.0000 0.0000 1787.5337 -7483.8827 299.5930 -9271.4165 -7543.5035 300.0101 -218.9663 -183.0014 30647.8578 -178.9148 -112.7166
ENERGY: 1500000 1.3836 13.0550 5.4598 0.0000 -10863.6404 1509.4922 0.0000 0.0000 1828.8460 -7505.4038 306.5170 -9334.2498 -7540.2418 300.8600 469.4761 555.7797 30895.5224 -59.5013 4.0508
TCL: Running FEP window   4: Lambda1 0.8499999999999999 Lambda2 0.7999999999999998 [dLambda -0.050000000000000044]
TCL: Setting parameter firsttimestep to 0
TCL: Setting parameter alchLambda to 0.8499999999999999
Info: NONBONDED TABLE R-SQUARED SPACING: 0.0625
Info: NONBONDED TABLE SIZE: 705 POINTS
TCL: Setting parameter alchLambda2 to 0.7999999999999998
Info: NONBONDED TABLE R-SQUARED SPACING: 0.0625
Info: NONBONDED TABLE SIZE: 705 POINTS
TCL: Running for 1500000 steps
ETITLE: TS BOND ANGLE DIHED IMPRP ELECT VDW BOUNDARY MISC KINETIC TOTAL TEMP POTENTIAL TOTALAVG TEMPAVG PRESSURE GPRESSURE VOLUME PRESSAVG GPRESSAVG
ENERGY: 0 1.3836 13.0550 5.4598 0.0000 -10861.6359 1509.0391 0.0000 0.0000 1827.9439 -7504.7543 306.3658 -9332.6983 -7504.7543 306.3658 447.0503 541.2075 30895.5224 447.0503 541.2075
ENERGY: 300000 0.5218 8.3022 5.4051 0.0000 -10702.8500 1373.4587 0.0000 0.0000 1810.5833 -7504.5789 303.4561 -9315.1622 -7506.5183 302.6423 -351.2157 -317.8870 30910.3083 -228.8000 -161.7576
ENERGY: 600000 3.0248 8.7657 5.3508 0.0000 -10731.0651 1393.4461 0.0000 0.0000 1795.3534 -7525.1243 300.9036 -9320.4777 -7521.7391 300.0732 -465.7239 -427.6734 31091.0897 -377.4999 -313.6003
ENERGY: 900000 2.3531 12.6183 5.5114 0.0000 -10798.7297 1434.2455 0.0000 0.0000 1809.0564 -7534.9450 303.2002 -9344.0014 -7537.8786 299.3735 -129.4891 -79.4094 30938.7394 -285.9294 -225.0560
ENERGY: 1200000 3.1287 12.4966 3.2963 0.0000 -10768.6261 1428.5991 0.0000 0.0000 1861.4847 -7459.6206 311.9872 -9321.1053 -7529.1590 300.2791 -84.6200 -9.9392 30937.0421 -300.8561 -244.8091
ENERGY: 1500000 1.0027 12.7406 6.0551 0.0000 -10818.3807 1462.7094 0.0000 0.0000 1779.4485 -7556.4243 298.2379 -9335.8728 -7529.6852 299.7515 353.6400 384.6866 30640.3944 -242.1977 -185.8750
TCL: Running FEP window   5: Lambda1 0.7999999999999998 Lambda2 0.7499999999999998 [dLambda -0.050000000000000044]
TCL: Setting parameter firsttimestep to 0
TCL: Setting parameter alchLambda to 0.7999999999999998
Info: NONBONDED TABLE R-SQUARED SPACING: 0.0625
Info: NONBONDED TABLE SIZE: 705 POINTS
TCL: Setting parameter alchLambda2 to 0.7499999999999998
Info: NONBONDED TABLE R-SQUARED SPACING: 0.0625
Info: NONBONDED TABLE SIZE: 705 POINTS
TCL: Running for 1500000 steps
ETITLE: TS BOND ANGLE DIHED IMPRP ELECT VDW BOUNDARY MISC KINETIC TOTAL TEMP POTENTIAL TOTALAVG TEMPAVG PRESSURE GPRESSURE VOLUME PRESSAVG GPRESSAVG
ENERGY: 0 1.0027 12.7406 6.0551 0.0000 -10816.9283 1462.1833 0.0000 0.0000 1778.5631 -7556.3835 298.0895 -9334.9466 -7556.3835 298.0895 300.8167 368.3408 30640.3944 300.8167 368.3408
ENERGY: 300000 1.9425 9.6448 8.1061 0.0000 -10806.5082 1427.1006 0.0000 0.0000 1787.7139 -7572.0002 299.6232 -9359.7142 -7541.2387 299.7033 -278.3571 -209.3673 30777.6972 -308.5570 -252.3425
ENERGY: 600000 2.8448 10.5695 5.3993 0.0000 -10804.3888 1414.1883 0.0000 0.0000 1750.3645 -7621.0225 293.3634 -9371.3869 -7559.9957 298.9812 -107.2218 -133.7188 30365.0399 -323.1391 -292.5087
ENERGY: 900000 2.8724 12.4425 4.5287 0.0000 -10813.7232 1385.4862 0.0000 0.0000 1780.7854 -7627.6080 298.4619 -9408.3934 -7555.1838 299.9317 -949.6127 -873.5962 31241.9009 -362.7437 -312.8949
ENERGY: 1200000 1.0183 12.0689 5.4485 0.0000 -10845.6810 1460.9894 0.0000 0.0000 1805.9084 -7560.2475 302.6726 -9366.1560 -7552.2273 299.0334 22.8699 111.0681 30778.8353 -272.9055 -221.8213
ENERGY: 1500000 1.6779 12.9920 7.5503 0.0000 -10895.2999 1533.3833 0.0000 0.0000 1812.5615 -7527.1349 303.7877 -9339.6964 -7549.5816 299.9448 638.8802 645.2860 30875.7952 -130.5066 -82.5802
TCL: Running FEP window   6: Lambda1 0.7499999999999998 Lambda2 0.6999999999999997 [dLambda -0.050000000000000044]
TCL: Setting parameter firsttimestep to 0
TCL: Setting parameter alchLambda to 0.7499999999999998
Info: NONBONDED TABLE R-SQUARED SPACING: 0.0625
Info: NONBONDED TABLE SIZE: 705 POINTS
TCL: Setting parameter alchLambda2 to 0.6999999999999997
Info: NONBONDED TABLE R-SQUARED SPACING: 0.0625
Info: NONBONDED TABLE SIZE: 705 POINTS
TCL: Running for 1500000 steps
ETITLE: TS BOND ANGLE DIHED IMPRP ELECT VDW BOUNDARY MISC KINETIC TOTAL TEMP POTENTIAL TOTALAVG TEMPAVG PRESSURE GPRESSURE VOLUME PRESSAVG GPRESSAVG
ENERGY: 0 1.6779 12.9920 7.5503 0.0000 -10894.2252 1533.4988 0.0000 0.0000 1811.6477 -7526.8585 303.6345 -9338.5062 -7526.8585 303.6345 557.8359 634.8704 30875.7952 557.8359 634.8704
ENERGY: 300000 3.0334 12.5650 7.1354 0.0000 -10866.9558 1444.6682 0.0000 0.0000 1853.7976 -7545.7562 310.6989 -9399.5538 -7542.8878 305.7311 -326.0219 -269.6389 30917.8315 234.4054 313.8636
ENERGY: 600000 1.9092 16.8334 5.9892 0.0000 -11004.0831 1589.8970 0.0000 0.0000 1791.4754 -7597.9789 300.2536 -9389.4543 -7551.8543 303.4370 721.7570 757.8307 31127.4780 264.6967 328.8315
ENERGY: 900000 1.5230 13.1921 7.2442 0.0000 -10920.6539 1550.0574 0.0000 0.0000 1831.5360 -7517.1011 306.9678 -9348.6371 -7551.0293 303.5562 1017.9965 1013.1223 30414.7193 315.4617 371.9058
ENERGY: 1200000 1.9286 15.7019 5.2803 0.0000 -10950.6963 1574.2994 0.0000 0.0000 1795.7027 -7557.7833 300.9621 -9353.4860 -7549.6184 303.5196 1064.5011 1118.1532 30705.3733 344.4480 399.5947
ENERGY: 1500000 3.6112 12.7759 5.0646 0.0000 -10903.3662 1600.1901 0.0000 0.0000 1786.8852 -7494.8392 299.4843 -9281.7244 -7539.3090 302.9184 1453.9740 1469.9881 30679.4672 442.1117 494.2173
TCL: Running FEP window   7: Lambda1 0.6999999999999997 Lambda2 0.6499999999999997 [dLambda -0.050000000000000044]
TCL: Setting parameter firsttimestep to 0
TCL: Setting parameter alchLambda to 0.6999999999999997
Info: NONBONDED TABLE R-SQUARED SPACING: 0.0625
Info: NONBONDED TABLE SIZE: 705 POINTS
TCL: Setting parameter alchLambda2 to 0.6499999999999997
Info: NONBONDED TABLE R-SQUARED SPACING: 0.0625
Info: NONBONDED TABLE SIZE: 705 POINTS
TCL: Running for 1500000 steps
ETITLE: TS BOND ANGLE DIHED IMPRP ELECT VDW BOUNDARY MISC KINETIC TOTAL TEMP POTENTIAL TOTALAVG TEMPAVG PRESSURE GPRESSURE VOLUME PRESSAVG GPRESSAVG
ENERGY: 0 3.6112 12.7759 5.0646 0.0000 -10902.4050 1600.3440 0.0000 0.0000 1786.0026 -7494.6067 299.3364 -9280.6093 -7494.6067 299.3364 1390.3338 1465.3980 30679.4672 1390.3338 1465.3980
ENERGY: 300000 3.5513 11.0614 4.8125 0.0000 -10908.4823 1488.7595 0.0000 0.0000 1785.2837 -7615.0139 299.2159 -9400.2976 -7557.9522 297.5162 29.4719 74.7354 30656.6777 520.5038 576.0708
ENERGY: 600000 4.2890 14.1960 5.0591 0.0000 -10744.6447 1367.1969 0.0000 0.0000 1845.9358 -7507.9679 309.3812 -9353.9036 -7540.8824 300.1884 -850.2914 -815.3973 30924.6534 42.7466 92.3518
ENERGY: 900000 2.3404 14.2427 6.2498 0.0000 -10679.6939 1377.2480 0.0000 0.0000 1803.7173 -7475.8956 302.3054 -9279.6129 -7540.5030 301.6961 -290.5691 -337.9628 30795.7255 82.0842 132.3282
ENERGY: 1200000 3.3772 9.7778 7.9169 0.0000 -10744.8009 1503.9454 0.0000 0.0000 1744.4535 -7475.3301 292.3727 -9219.7836 -7536.3138 301.1714 842.3205 877.4031 30549.7625 161.7581 215.2905
ENERGY: 1500000 1.9791 14.4763 5.4461 0.0000 -10875.1687 1483.7201 0.0000 0.0000 1848.3678 -7521.1794 309.7888 -9369.5472 -7541.4938 301.7030 298.7986 341.8652 30661.1607 146.4176 194.9883
TCL: Running FEP window   8: Lambda1 0.6499999999999997 Lambda2 0.5999999999999996 [dLambda -0.050000000000000044]
TCL: Setting parameter firsttimestep to 0
TCL: Setting parameter alchLambda to 0.6499999999999997
Info: NONBONDED TABLE R-SQUARED SPACING: 0.0625
Info: NONBONDED TABLE SIZE: 705 POINTS
TCL: Setting parameter alchLambda2 to 0.5999999999999996
Info: NONBONDED TABLE R-SQUARED SPACING: 0.0625
Info: NONBONDED TABLE SIZE: 705 POINTS
TCL: Running for 1500000 steps
ETITLE: TS BOND ANGLE DIHED IMPRP ELECT VDW BOUNDARY MISC KINETIC TOTAL TEMP POTENTIAL TOTALAVG TEMPAVG PRESSURE GPRESSURE VOLUME PRESSAVG GPRESSAVG
ENERGY: 0 1.9791 14.4763 5.4461 0.0000 -10873.6180 1483.0426 0.0000 0.0000 1847.4740 -7521.2000 309.6390 -9368.6740 -7521.2000 309.6390 242.0029 326.9055 30661.1607 242.0029 326.9055
ENERGY: 300000 4.1922 11.7319 6.2009 0.0000 -10615.6480 1328.6389 0.0000 0.0000 1782.9205 -7481.9636 298.8198 -9264.8842 -7534.5604 301.3458 -706.5982 -679.2831 30883.9369 -525.2535 -482.0853
ENERGY: 600000 3.0022 11.2378 4.3826 0.0000 -10651.7316 1407.1027 0.0000 0.0000 1827.3542 -7398.6522 306.2669 -9226.0064 -7503.8703 301.9910 -314.1127 -219.8565 31498.7936 -308.1804 -239.1425
ENERGY: 900000 1.2226 11.6869 5.2190 0.0000 -10753.3903 1411.8989 0.0000 0.0000 1798.0156 -7525.3473 301.3498 -9323.3629 -7499.9630 303.1584 -384.5214 -330.2960 31266.2344 -272.6837 -208.2472
ENERGY: 1200000 1.6594 11.8143 5.3450 0.0000 -10892.1951 1483.0520 0.0000 0.0000 1824.2563 -7566.0681 305.7477 -9390.3244 -7512.6501 303.2477 172.9061 281.3150 30718.1345 -134.9597 -64.8576
ENERGY: 1500000 2.4551 9.4557 7.3348 0.0000 -10944.9933 1583.7405 0.0000 0.0000 1775.9684 -7566.0388 297.6546 -9342.0072 -7523.1125 301.8742 1110.6338 1145.3304 30442.7409 -21.0004 44.6858
TCL: Running FEP window   9: Lambda1 0.5999999999999996 Lambda2 0.5499999999999996 [dLambda -0.050000000000000044]
TCL: Setting parameter firsttimestep to 0
TCL: Setting parameter alchLambda to 0.5999999999999996
Info: NONBONDED TABLE R-SQUARED SPACING: 0.0625
Info: NONBONDED TABLE SIZE: 705 POINTS
TCL: Setting parameter alchLambda2 to 0.5499999999999996
Info: NONBONDED TABLE R-SQUARED SPACING: 0.0625
Info: NONBONDED TABLE SIZE: 705 POINTS
TCL: Running for 1500000 steps
ETITLE: TS BOND ANGLE DIHED IMPRP ELECT VDW BOUNDARY MISC KINETIC TOTAL TEMP POTENTIAL TOTALAVG TEMPAVG PRESSURE GPRESSURE VOLUME PRESSAVG GPRESSAVG
ENERGY: 0 2.4551 9.4557 7.3348 0.0000 -10944.1115 1583.7901 0.0000 0.0000 1775.0648 -7566.0110 297.5032 -9341.0758 -7566.0110 297.5032 1043.0498 1136.1077 30442.7409 1043.0498 1136.1077
ENERGY: 300000 1.8606 10.1383 5.6726 0.0000 -10764.0225 1391.7513 0.0000 0.0000 1784.1917 -7570.4081 299.0328 -9354.5997 -7567.7410 297.5275 -117.7286 -90.6033 30120.5132 295.9423 369.3123
ENERGY: 600000 3.0051 7.5921 5.4631 0.0000 -10700.5064 1437.1757 0.0000 0.0000 1783.2268 -7464.0435 298.8711 -9247.2704 -7534.1778 297.9716 94.3702 185.5075 30772.6949 148.5920 228.8252
ENERGY: 900000 7.0071 10.5028 5.4410 0.0000 -10800.5431 1424.7567 0.0000 0.0000 1712.8975 -7639.9380 287.0838 -9352.8354 -7564.9109 295.9506 -242.5436 -210.3840 30374.1450 -28.6611 46.9135
ENERGY: 1200000 2.0614 13.0806 6.8986 0.0000 -10882.4519 1467.4471 0.0000 0.0000 1802.3756 -7590.5886 302.0805 -9392.9642 -7568.2691 295.9251 103.9587 120.9535 30700.4204 -101.0072 -30.5802
ENERGY: 1500000 3.4435 8.0140 6.2675 0.0000 -10722.2262 1368.3588 0.0000 0.0000 1790.6765 -7545.4661 300.1197 -9336.1425 -7568.4109 296.3221 -760.1287 -667.0630 30958.9688 -130.9221 -64.1930
TCL: Running FEP window  10: Lambda1 0.5499999999999996 Lambda2 0.4999999999999996 [dLambda -0.04999999999999999]
TCL: Setting parameter firsttimestep to 0
TCL: Setting parameter alchLambda to 0.5499999999999996
Info: NONBONDED TABLE R-SQUARED SPACING: 0.0625
Info: NONBONDED TABLE SIZE: 705 POINTS
TCL: Setting parameter alchLambda2 to 0.4999999999999996
Info: NONBONDED TABLE R-SQUARED SPACING: 0.0625
Info: NONBONDED TABLE SIZE: 705 POINTS
TCL: Running for 1500000 steps
ETITLE: TS BOND ANGLE DIHED IMPRP ELECT VDW BOUNDARY MISC KINETIC TOTAL TEMP POTENTIAL TOTALAVG TEMPAVG PRESSURE GPRESSURE VOLUME PRESSAVG GPRESSAVG
ENERGY: 0 3.4435 8.0140 6.2675 0.0000 -10722.1681 1368.5754 0.0000 0.0000 1789.7989 -7546.0689 299.9726 -9335.8677 -7546.0689 299.9726 -754.1140 -674.4500 30958.9688 -754.1140 -674.4500
ENERGY: 300000 1.9081 10.1686 7.1361 0.0000 -10706.3330 1429.2500 0.0000 0.0000 1779.8756 -7477.9946 298.3095 -9257.8701 -7553.5714 298.8323 150.8563 248.8254 30677.4982 -210.8203 -118.5198
ENERGY: 600000 2.3471 10.7963 7.9074 0.0000 -10797.6622 1457.2811 0.0000 0.0000 1773.9725 -7545.3579 297.3201 -9319.3304 -7550.7512 297.7225 232.2173 215.1280 30793.4100 -168.8919 -114.3946
ENERGY: 900000 2.3439 10.8223 5.9852 0.0000 -10798.6679 1447.6445 0.0000 0.0000 1837.3947 -7494.4774 307.9497 -9331.8721 -7535.0913 300.0340 308.1839 348.5147 30533.7256 -132.0975 -75.5756
ENERGY: 1200000 1.7507 7.6762 8.0676 0.0000 -10866.3587 1491.8473 0.0000 0.0000 1789.9242 -7567.0928 299.9936 -9357.0170 -7534.3668 299.9357 42.1817 91.7142 31272.8055 -168.1163 -114.3920
ENERGY: 1500000 3.4585 11.6505 5.0336 0.0000 -10797.6700 1439.4769 0.0000 0.0000 1763.6014 -7574.4491 295.5819 -9338.0505 -7543.1940 299.4278 -153.5698 -117.8233 30678.1993 -162.6555 -98.2775
TCL: Running FEP window  11: Lambda1 0.4999999999999996 Lambda2 0.4499999999999996 [dLambda -0.04999999999999999]
TCL: Setting parameter firsttimestep to 0
TCL: Setting parameter alchLambda to 0.4999999999999996
Info: NONBONDED TABLE R-SQUARED SPACING: 0.0625
Info: NONBONDED TABLE SIZE: 705 POINTS
TCL: Setting parameter alchLambda2 to 0.4499999999999996
Info: NONBONDED TABLE R-SQUARED SPACING: 0.0625
Info: NONBONDED TABLE SIZE: 705 POINTS
TCL: Running for 1500000 steps
ETITLE: TS BOND ANGLE DIHED IMPRP ELECT VDW BOUNDARY MISC KINETIC TOTAL TEMP POTENTIAL TOTALAVG TEMPAVG PRESSURE GPRESSURE VOLUME PRESSAVG GPRESSAVG
ENERGY: 0 3.4585 11.6506 5.0336 0.0000 -10797.5807 1439.8771 0.0000 0.0000 1762.7082 -7574.8528 295.4322 -9337.5609 -7574.8528 295.4322 -214.4115 -123.4896 30678.1993 -214.4115 -123.4896
ENERGY: 300000 2.7348 15.1831 5.7320 0.0000 -10753.2416 1412.3690 0.0000 0.0000 1830.9806 -7486.2421 306.8747 -9317.2228 -7534.0300 302.7501 -289.3763 -204.1199 30773.3167 49.0535 125.5984
ENERGY: 600000 2.9307 14.0533 8.3131 0.0000 -10902.2516 1500.7769 0.0000 0.0000 1776.0721 -7600.1055 297.6720 -9376.1776 -7543.1830 302.3795 246.3832 419.9550 30476.7675 9.0320 102.5451
ENERGY: 900000 1.8124 9.2281 5.8998 0.0000 -10901.6835 1510.8170 0.0000 0.0000 1751.5138 -7622.4124 293.5560 -9373.9262 -7574.4669 299.4739 365.0166 464.8398 30508.7472 -30.6633 52.9775
ENERGY: 1200000 3.5888 10.5367 5.0852 0.0000 -10817.9327 1366.4840 0.0000 0.0000 1748.8679 -7683.3702 293.1125 -9432.2381 -7584.9089 298.6573 -761.3053 -674.7391 30557.6567 -105.2203 -24.5466
ENERGY: 1500000 2.0092 13.8615 6.0560 0.0000 -10867.5876 1474.8365 0.0000 0.0000 1748.1543 -7622.6701 292.9929 -9370.8244 -7586.2038 298.8925 -47.1047 71.6885 30647.5231 -64.3505 14.9838
TCL: Running FEP window  12: Lambda1 0.4499999999999996 Lambda2 0.39999999999999963 [dLambda -0.04999999999999999]
TCL: Setting parameter firsttimestep to 0
TCL: Setting parameter alchLambda to 0.4499999999999996
Info: NONBONDED TABLE R-SQUARED SPACING: 0.0625
Info: NONBONDED TABLE SIZE: 705 POINTS
TCL: Setting parameter alchLambda2 to 0.39999999999999963
Info: NONBONDED TABLE R-SQUARED SPACING: 0.0625
Info: NONBONDED TABLE SIZE: 705 POINTS
TCL: Running for 1500000 steps
ETITLE: TS BOND ANGLE DIHED IMPRP ELECT VDW BOUNDARY MISC KINETIC TOTAL TEMP POTENTIAL TOTALAVG TEMPAVG PRESSURE GPRESSURE VOLUME PRESSAVG GPRESSAVG
ENERGY: 0 2.0092 13.8615 6.0560 0.0000 -10867.5881 1474.9435 0.0000 0.0000 1747.2529 -7623.4650 292.8418 -9370.7179 -7623.4650 292.8418 -25.2299 63.1706 30647.5231 -25.2299 63.1706
ENERGY: 300000 2.4151 16.5277 7.6512 0.0000 -10857.2673 1501.9380 0.0000 0.0000 1846.8502 -7481.8851 309.5345 -9328.7353 -7558.4800 300.0866 330.8035 398.4241 31136.5927 46.5667 134.8059
ENERGY: 600000 1.4808 13.2527 4.1686 0.0000 -10834.2575 1425.7805 0.0000 0.0000 1787.3270 -7602.2479 299.5583 -9389.5749 -7550.0730 299.6426 -344.2084 -307.0410 30554.4599 -284.0106 -205.2537
ENERGY: 900000 2.2393 10.7093 4.5282 0.0000 -10770.2694 1391.0116 0.0000 0.0000 1806.5263 -7555.2547 302.7761 -9361.7810 -7547.6511 301.4760 -459.4248 -392.5613 30682.9866 -206.8711 -132.8211
ENERGY: 1200000 1.2934 14.2125 6.7156 0.0000 -10890.9215 1494.3742 0.0000 0.0000 1753.6223 -7620.7034 293.9094 -9374.3257 -7548.7380 300.2391 178.4238 209.8491 30703.7379 -265.7880 -192.2842
ENERGY: 1500000 0.9884 10.6738 7.0476 0.0000 -10871.6213 1420.0246 0.0000 0.0000 1830.4991 -7602.3877 306.7940 -9432.8868 -7554.2740 300.6333 -495.3153 -424.8198 30683.0037 -288.8459 -219.2003
TCL: Running FEP window  13: Lambda1 0.39999999999999963 Lambda2 0.34999999999999964 [dLambda -0.04999999999999999]
TCL: Setting parameter firsttimestep to 0
TCL: Setting parameter alchLambda to 0.39999999999999963
Info: NONBONDED TABLE R-SQUARED SPACING: 0.0625
Info: NONBONDED TABLE SIZE: 705 POINTS
TCL: Setting parameter alchLambda2 to 0.34999999999999964
Info: NONBONDED TABLE R-SQUARED SPACING: 0.0625
Info: NONBONDED TABLE SIZE: 705 POINTS
TCL: Running for 1500000 steps
ETITLE: TS BOND ANGLE DIHED IMPRP ELECT VDW BOUNDARY MISC KINETIC TOTAL TEMP POTENTIAL TOTALAVG TEMPAVG PRESSURE GPRESSURE VOLUME PRESSAVG GPRESSAVG
ENERGY: 0 0.9884 10.6738 7.0476 0.0000 -10871.6213 1420.2366 0.0000 0.0000 1829.6296 -7603.0453 306.6483 -9432.6749 -7603.0453 306.6483 -512.0170 -428.9957 30683.0037 -512.0170 -428.9957
ENERGY: 300000 2.4791 14.5462 7.7225 0.0000 -10858.9021 1517.6273 0.0000 0.0000 1892.9619 -7423.5651 317.2629 -9316.5270 -7533.7904 304.4951 550.2200 565.4868 30761.6395 -133.4322 -94.5225
ENERGY: 600000 3.2931 14.0084 5.0880 0.0000 -10858.8994 1399.2646 0.0000 0.0000 1753.3281 -7683.9174 293.8601 -9437.2454 -7545.1156 302.0123 -685.9351 -579.4457 30414.1194 -169.3984 -109.1988
ENERGY: 900000 2.7174 10.2275 7.3854 0.0000 -10767.9519 1415.0093 0.0000 0.0000 1820.6231 -7511.9891 305.1388 -9332.6122 -7555.4408 301.7818 -417.6820 -352.0374 31014.6201 -119.6605 -51.1247
ENERGY: 1200000 2.7127 11.9262 6.0552 0.0000 -10750.2263 1455.2192 0.0000 0.0000 1766.9656 -7507.3474 296.1457 -9274.3131 -7551.4205 301.1559 142.7374 294.4836 30670.9957 -86.6602 -19.8111
ENERGY: 1500000 2.5796 10.3913 6.0050 0.0000 -10711.1720 1416.6147 0.0000 0.0000 1775.5991 -7499.9822 297.5927 -9275.5813 -7548.0762 300.2905 -208.5271 -205.8141 30986.0691 -160.4954 -99.1567
TCL: Running FEP window  14: Lambda1 0.34999999999999964 Lambda2 0.29999999999999966 [dLambda -0.04999999999999999]
TCL: Setting parameter firsttimestep to 0
TCL: Setting parameter alchLambda to 0.34999999999999964
Info: NONBONDED TABLE R-SQUARED SPACING: 0.0625
Info: NONBONDED TABLE SIZE: 705 POINTS
TCL: Setting parameter alchLambda2 to 0.29999999999999966
Info: NONBONDED TABLE R-SQUARED SPACING: 0.0625
Info: NONBONDED TABLE SIZE: 705 POINTS
TCL: Running for 1500000 steps
ETITLE: TS BOND ANGLE DIHED IMPRP ELECT VDW BOUNDARY MISC KINETIC TOTAL TEMP POTENTIAL TOTALAVG TEMPAVG PRESSURE GPRESSURE VOLUME PRESSAVG GPRESSAVG
ENERGY: 0 2.5796 10.3913 6.0050 0.0000 -10711.1725 1417.0465 0.0000 0.0000 1774.6773 -7500.4727 297.4382 -9275.1500 -7500.4727 297.4382 -290.5635 -208.8002 30986.0691 -290.5635 -208.8002
ENERGY: 300000 2.7496 6.8842 4.1667 0.0000 -10674.8968 1293.1440 0.0000 0.0000 1850.0873 -7517.8649 310.0770 -9367.9522 -7547.3720 301.9662 -1277.8710 -1204.0165 31014.8010 -291.7966 -221.8981
ENERGY: 600000 3.3879 13.4141 5.1870 0.0000 -10860.5219 1512.5243 0.0000 0.0000 1837.0033 -7489.0053 307.8841 -9326.0086 -7546.3642 301.0039 425.7142 444.2462 30515.8683 -96.5003 -23.4612
ENERGY: 900000 1.6153 13.5022 4.6650 0.0000 -10694.0454 1350.7807 0.0000 0.0000 1781.4566 -7542.0257 298.5744 -9323.4823 -7541.6266 300.4461 -859.7434 -767.3019 30886.9245 -203.6045 -132.7580
ENERGY: 1200000 3.0044 12.2638 6.4604 0.0000 -10886.5700 1514.4358 0.0000 0.0000 1799.3445 -7551.0611 301.5725 -9350.4057 -7542.5319 299.9218 566.1809 653.5738 30173.2811 -132.6898 -65.3755
ENERGY: 1500000 2.4741 14.1806 5.5497 0.0000 -10904.7844 1456.0260 0.0000 0.0000 1769.1080 -7657.4461 296.5048 -9426.5541 -7559.7850 299.0651 114.3884 136.2531 30135.1560 -81.0677 -16.2086
TCL: Running FEP window  15: Lambda1 0.29999999999999966 Lambda2 0.24999999999999967 [dLambda -0.04999999999999999]
TCL: Setting parameter firsttimestep to 0
TCL: Setting parameter alchLambda to 0.29999999999999966
Info: NONBONDED TABLE R-SQUARED SPACING: 0.0625
Info: NONBONDED TABLE SIZE: 705 POINTS
TCL: Setting parameter alchLambda2 to 0.24999999999999967
Info: NONBONDED TABLE R-SQUARED SPACING: 0.0625
Info: NONBONDED TABLE SIZE: 705 POINTS
TCL: Running for 1500000 steps
ETITLE: TS BOND ANGLE DIHED IMPRP ELECT VDW BOUNDARY MISC KINETIC TOTAL TEMP POTENTIAL TOTALAVG TEMPAVG PRESSURE GPRESSURE VOLUME PRESSAVG GPRESSAVG
ENERGY: 0 2.4741 14.1806 5.5497 0.0000 -10904.7826 1456.3242 0.0000 0.0000 1768.1942 -7658.0599 296.3516 -9426.2541 -7658.0599 296.3516 66.8266 132.9261 30135.1560 66.8266 132.9261
ENERGY: 300000 0.6695 13.5213 4.6375 0.0000 -10748.9717 1418.7849 0.0000 0.0000 1772.2725 -7539.0862 297.0352 -9311.3586 -7582.1036 298.7894 -101.9332 -90.2418 30650.9257 -212.7595 -149.7669
ENERGY: 600000 3.4046 15.7539 6.3866 0.0000 -10888.5895 1474.9119 0.0000 0.0000 1776.4416 -7611.6909 297.7339 -9388.1325 -7562.2489 299.5782 -274.9507 -178.2120 30996.8468 -23.9912 35.6987
ENERGY: 900000 1.0514 10.4503 7.1857 0.0000 -10757.7692 1406.1885 0.0000 0.0000 1762.5851 -7570.3082 295.4115 -9332.8933 -7557.3916 300.9679 -329.6824 -224.1883 30480.8634 -133.5506 -61.5175
ENERGY: 1200000 2.1958 14.6378 5.8711 0.0000 -10737.7390 1445.1297 0.0000 0.0000 1768.7729 -7501.1317 296.4486 -9269.9046 -7546.6132 301.2391 -184.9574 -96.2648 31024.6920 -116.9220 -44.5150
ENERGY: 1500000 4.7648 12.5880 4.7445 0.0000 -10874.4692 1499.5169 0.0000 0.0000 1818.1409 -7534.7141 304.7228 -9352.8550 -7557.9168 300.3847 190.8357 276.2990 30900.4943 -138.6287 -66.6130
TCL: Running FEP window  16: Lambda1 0.24999999999999967 Lambda2 0.19999999999999968 [dLambda -0.04999999999999999]
TCL: Setting parameter firsttimestep to 0
TCL: Setting parameter alchLambda to 0.24999999999999967
Info: NONBONDED TABLE R-SQUARED SPACING: 0.0625
Info: NONBONDED TABLE SIZE: 705 POINTS
TCL: Setting parameter alchLambda2 to 0.19999999999999968
Info: NONBONDED TABLE R-SQUARED SPACING: 0.0625
Info: NONBONDED TABLE SIZE: 705 POINTS
TCL: Running for 1500000 steps
ETITLE: TS BOND ANGLE DIHED IMPRP ELECT VDW BOUNDARY MISC KINETIC TOTAL TEMP POTENTIAL TOTALAVG TEMPAVG PRESSURE GPRESSURE VOLUME PRESSAVG GPRESSAVG
ENERGY: 0 4.7648 12.5879 4.7445 0.0000 -10874.4693 1499.9575 0.0000 0.0000 1817.2315 -7535.1831 304.5703 -9352.4145 -7535.1831 304.5703 173.6680 276.4618 30900.4943 173.6680 276.4618
ENERGY: 300000 1.3088 11.0615 5.4074 0.0000 -10872.0213 1459.2132 0.0000 0.0000 1795.6660 -7599.3643 300.9559 -9395.0303 -7582.7426 299.2842 -270.0729 -187.6362 30954.3663 -231.4877 -146.8750
ENERGY: 600000 1.3620 13.2416 7.8344 0.0000 -10740.0843 1412.1895 0.0000 0.0000 1777.9324 -7527.5245 297.9838 -9305.4569 -7590.6460 297.7919 -551.2266 -478.4808 31468.2095 -213.6122 -150.0759
ENERGY: 900000 7.2902 9.7653 4.6476 0.0000 -10762.5721 1392.5491 0.0000 0.0000 1831.3897 -7516.9302 306.9433 -9348.3199 -7559.0543 299.5424 -795.6988 -689.5277 30871.6486 -285.8449 -218.0715
ENERGY: 1200000 2.1045 12.3590 6.5441 0.0000 -10657.4680 1273.1502 0.0000 0.0000 1755.5116 -7607.7986 294.2260 -9363.3102 -7554.6734 299.1757 -1751.4027 -1644.6212 31288.3916 -401.2048 -331.9977
ENERGY: 1500000 2.2562 11.4193 6.4510 0.0000 -10907.7510 1488.8972 0.0000 0.0000 1794.5862 -7604.1412 300.7750 -9398.7274 -7560.0808 298.7466 195.8770 238.0895 30266.2172 -361.3252 -290.1069
TCL: Running FEP window  17: Lambda1 0.19999999999999968 Lambda2 0.1499999999999997 [dLambda -0.04999999999999999]
TCL: Setting parameter firsttimestep to 0
TCL: Setting parameter alchLambda to 0.19999999999999968
Info: NONBONDED TABLE R-SQUARED SPACING: 0.0625
Info: NONBONDED TABLE SIZE: 705 POINTS
TCL: Setting parameter alchLambda2 to 0.1499999999999997
Info: NONBONDED TABLE R-SQUARED SPACING: 0.0625
Info: NONBONDED TABLE SIZE: 705 POINTS
TCL: Running for 1500000 steps
ETITLE: TS BOND ANGLE DIHED IMPRP ELECT VDW BOUNDARY MISC KINETIC TOTAL TEMP POTENTIAL TOTALAVG TEMPAVG PRESSURE GPRESSURE VOLUME PRESSAVG GPRESSAVG
ENERGY: 0 2.2562 11.4193 6.4510 0.0000 -10907.7521 1488.6921 0.0000 0.0000 1793.7016 -7605.2320 300.6267 -9398.9335 -7605.2320 300.6267 147.1282 234.0947 30266.2172 147.1282 234.0947
ENERGY: 300000 1.5640 12.4617 7.3836 0.0000 -10728.3819 1354.6594 0.0000 0.0000 1840.6824 -7511.6307 308.5008 -9352.3132 -7573.2660 301.0762 -987.1833 -951.4678 31091.4320 -201.8884 -153.7897
ENERGY: 600000 1.7342 13.3848 5.6583 0.0000 -10770.9806 1401.3093 0.0000 0.0000 1790.4850 -7558.4091 300.0876 -9348.8940 -7572.6297 299.8265 -328.9919 -265.1497 30607.5368 -50.9358 3.0011
ENERGY: 900000 3.2667 15.0705 6.2392 0.0000 -10862.2578 1504.2839 0.0000 0.0000 1744.8801 -7588.5174 292.4442 -9333.3975 -7573.2135 298.6084 487.2291 603.7461 30318.4913 56.3623 108.8052
ENERGY: 1200000 4.0938 9.1090 4.4473 0.0000 -10902.7515 1558.5502 0.0000 0.0000 1795.4461 -7531.1051 300.9191 -9326.5512 -7559.9472 298.2953 1118.2455 1150.3378 30155.1577 87.2750 138.1650
ENERGY: 1500000 1.8195 11.9244 6.6579 0.0000 -10835.0856 1415.4438 0.0000 0.0000 1776.4778 -7622.7622 297.7400 -9399.2401 -7564.3184 298.0479 -576.3010 -465.1554 30677.4359 132.7406 189.3769
TCL: Running FEP window  18: Lambda1 0.1499999999999997 Lambda2 0.09999999999999969 [dLambda -0.05 ]
TCL: Setting parameter firsttimestep to 0
TCL: Setting parameter alchLambda to 0.1499999999999997
Info: NONBONDED TABLE R-SQUARED SPACING: 0.0625
Info: NONBONDED TABLE SIZE: 705 POINTS
TCL: Setting parameter alchLambda2 to 0.09999999999999969
Info: NONBONDED TABLE R-SQUARED SPACING: 0.0625
Info: NONBONDED TABLE SIZE: 705 POINTS
TCL: Running for 1500000 steps
ETITLE: TS BOND ANGLE DIHED IMPRP ELECT VDW BOUNDARY MISC KINETIC TOTAL TEMP POTENTIAL TOTALAVG TEMPAVG PRESSURE GPRESSURE VOLUME PRESSAVG GPRESSAVG
ENERGY: 0 1.8195 11.9244 6.6579 0.0000 -10835.0866 1415.4913 0.0000 0.0000 1775.5567 -7623.6367 297.5856 -9399.1935 -7623.6367 297.5856 -571.9644 -466.6715 30677.4359 -571.9644 -466.6715
ENERGY: 300000 2.4363 13.4550 5.5828 0.0000 -10730.2848 1416.6132 0.0000 0.0000 1783.9658 -7508.2318 298.9950 -9292.1976 -7550.9845 296.7541 -216.4226 -114.6889 30661.5020 -112.7369 -12.0705
ENERGY: 600000 1.3888 13.1105 5.5215 0.0000 -11067.9564 1588.6089 0.0000 0.0000 1794.7006 -7664.6261 300.7941 -9459.3267 -7573.7365 298.0833 912.5339 973.8361 30013.6254 97.6448 183.7380
ENERGY: 900000 3.6772 12.6383 4.8303 0.0000 -10597.9332 1302.5067 0.0000 0.0000 1823.2454 -7451.0353 305.5783 -9274.2807 -7559.4913 298.2990 -1176.8730 -1184.2149 31190.7860 -20.3672 52.5649
ENERGY: 1200000 3.0798 11.0317 6.3974 0.0000 -10796.3616 1478.9327 0.0000 0.0000 1822.7579 -7474.1620 305.4966 -9296.9199 -7559.1823 298.5906 225.3107 241.8782 31107.9984 -19.9221 43.1906
ENERGY: 1500000 1.8781 9.4981 5.1782 0.0000 -10855.2900 1473.9601 0.0000 0.0000 1839.4710 -7525.3046 308.2977 -9364.7756 -7557.0078 299.5836 -115.8064 -17.1209 31161.0968 -36.1097 23.2115
TCL: Running FEP window  19: Lambda1 0.09999999999999969 Lambda2 0.049999999999999684 [dLambda -0.05 ]
TCL: Setting parameter firsttimestep to 0
TCL: Setting parameter alchLambda to 0.09999999999999969
Info: NONBONDED TABLE R-SQUARED SPACING: 0.0625
Info: NONBONDED TABLE SIZE: 705 POINTS
TCL: Setting parameter alchLambda2 to 0.049999999999999684
Info: NONBONDED TABLE R-SQUARED SPACING: 0.0625
Info: NONBONDED TABLE SIZE: 705 POINTS
TCL: Running for 1500000 steps
ETITLE: TS BOND ANGLE DIHED IMPRP ELECT VDW BOUNDARY MISC KINETIC TOTAL TEMP POTENTIAL TOTALAVG TEMPAVG PRESSURE GPRESSURE VOLUME PRESSAVG GPRESSAVG
ENERGY: 0 1.8781 9.4981 5.1782 0.0000 -10855.2911 1472.9966 0.0000 0.0000 1838.6159 -7527.1243 308.1544 -9365.7402 -7527.1243 308.1544 -97.4109 -24.8354 31161.0968 -97.4109 -24.8354
ENERGY: 300000 3.6120 12.9983 4.3429 0.0000 -10929.8931 1522.6857 0.0000 0.0000 1819.6885 -7566.5658 304.9821 -9386.2542 -7510.5436 302.6049 280.5562 307.6658 31193.8449 -56.1105 -17.1721
ENERGY: 600000 3.1893 13.1915 4.9485 0.0000 -10892.1289 1510.5906 0.0000 0.0000 1804.5776 -7555.6314 302.4495 -9360.2090 -7518.6255 302.6582 251.2704 359.2161 30682.4346 -135.4107 -86.5912
ENERGY: 900000 3.8480 15.4467 4.1339 0.0000 -10844.5262 1426.6068 0.0000 0.0000 1758.4163 -7636.0744 294.7129 -9394.4908 -7539.0974 301.3267 -418.0429 -345.6434 30738.3822 -203.4109 -156.0336
ENERGY: 1200000 3.7545 17.4015 5.3343 0.0000 -10872.6626 1478.0451 0.0000 0.0000 1766.7834 -7601.3439 296.1152 -9368.1273 -7528.7124 301.2426 -6.6939 67.6658 30525.5195 -171.6725 -123.4735
ENERGY: 1500000 5.2469 20.3144 6.9361 0.0000 -10775.3004 1492.7993 0.0000 0.0000 1809.5875 -7440.4162 303.2892 -9250.0037 -7520.3424 302.0506 578.2617 688.4201 30762.8682 -87.6169 -31.0198
TCL: Running FEP window  20: Lambda1 0.049999999999999684 Lambda2 0.0    [dLambda -0.049999999999999684]
TCL: Setting parameter firsttimestep to 0
TCL: Setting parameter alchLambda to 0.049999999999999684
Info: NONBONDED TABLE R-SQUARED SPACING: 0.0625
Info: NONBONDED TABLE SIZE: 705 POINTS
TCL: Setting parameter alchLambda2 to 0.0
Info: NONBONDED TABLE R-SQUARED SPACING: 0.0625
Info: NONBONDED TABLE SIZE: 705 POINTS
TCL: Running for 1500000 steps
ETITLE: TS BOND ANGLE DIHED IMPRP ELECT VDW BOUNDARY MISC KINETIC TOTAL TEMP POTENTIAL TOTALAVG TEMPAVG PRESSURE GPRESSURE VOLUME PRESSAVG GPRESSAVG
ENERGY: 0 5.2469 20.3144 6.9361 0.0000 -10775.3021 1492.0265 0.0000 0.0000 1808.7162 -7442.0621 303.1432 -9250.7783 -7442.0621 303.1432 603.6651 680.2312 30762.8682 603.6651 680.2312
ENERGY: 300000 2.2768 13.9547 6.7367 0.0000 -10674.7674 1344.1175 0.0000 0.0000 1838.1338 -7469.5479 308.0736 -9307.6816 -7499.9074 300.9461 -923.4671 -863.5162 30627.9048 191.7792 237.5378
ENERGY: 600000 1.8747 10.4924 6.6052 0.0000 -10844.2317 1440.4816 0.0000 0.0000 1828.8272 -7555.9506 306.5138 -9384.7778 -7547.7845 301.2077 -396.9106 -330.4418 31046.5571 -11.3778 43.3882
ENERGY: 900000 3.1747 11.8337 7.1060 0.0000 -10774.6663 1450.0889 0.0000 0.0000 1840.9021 -7461.5609 308.5376 -9302.4630 -7544.0864 302.1175 -17.9660 33.0004 31056.6989 5.2247 65.5774
ENERGY: 1200000 2.3232 8.7067 5.0745 0.0000 -10727.5479 1373.8739 0.0000 0.0000 1784.3600 -7553.2096 299.0610 -9337.5696 -7541.2691 302.3886 -679.7052 -627.6776 30808.3536 -56.9116 -4.0221
ENERGY: 1500000 3.0265 9.6774 4.8710 0.0000 -10722.0568 1397.2121 0.0000 0.0000 1832.1700 -7475.0999 307.0741 -9307.2699 -7535.3089 303.4555 -521.1823 -420.0617 30581.9496 -45.2257 11.7484
TCL: Exiting due to exit command.
