Info: SIMULATION PARAMETERS:
Info: TIMESTEP               2
Info: NUMBER OF STEPS        0
Info: STEPS PER CYCLE        10
Info: PERIODIC CELL BASIS 1  33.1884 0 0
Info: PERIODIC CELL BASIS 2  0 30.3735 0
Info: PERIODIC CELL BASIS 3  0 0 30.0331
Info: PERIODIC CELL CENTER   0 0 0
Info: WRAPPING WATERS AROUND PERIODIC BOUNDARIES ON OUTPUT.
Info: WRAPPING ALL CLUSTERS AROUND PERIODIC BOUNDARIES ON OUTPUT.
Info: FIRST LDB TIMESTEP     50
Info: LAST LDB TIMESTEP     -1
Info: HOM BACKGROUND SCALING 1
Info: PME BACKGROUND SCALING 1
Info: MIN ATOMS PER PATCH    40
Info: EMPTY PATCH LOAD       40 ATOMS
Info: VELOCITY FILE          mobley_2402487_equil.vel
Info: CENTER OF MASS MOVING INITIALLY? NO
Info: DIELECTRIC             1
Info: EXCLUDE                SCALED ONE-FOUR
Info: 1-4 ELECTROSTATICS SCALED BY 0.833333
Info: MODIFIED 1-4 VDW PARAMETERS WILL BE USED
Info: DCD FILENAME           mobley_2402487_prod.dcd
Info: DCD FREQUENCY          100000
Info: DCD FIRST STEP         100000
Info: DCD FILE WILL CONTAIN UNIT CELL DATA
Info: XST FILENAME           mobley_2402487_prod.xst
Info: XST FREQUENCY          100000
Info: NO VELOCITY DCD OUTPUT
Info: NO FORCE DCD OUTPUT
Info: OUTPUT FILENAME        mobley_2402487_prod
Info: BINARY OUTPUT FILES WILL BE USED
Info: RESTART FILENAME       mobley_2402487_prod.restart
Info: RESTART FREQUENCY      100000
Info: BINARY RESTART FILES WILL BE USED
Info: CUTOFF                 9
Info: PAIRLIST DISTANCE      11
Info: PAIRLIST SHRINK RATE   0.01
Info: PAIRLIST GROW RATE     0.01
Info: PAIRLIST TRIGGER       0.3
Info: PAIRLISTS PER CYCLE    2
Info: PAIRLISTS ENABLED
Info: MARGIN                 2
Info: HYDROGEN GROUP CUTOFF  2.5
Info: PATCH DIMENSION        15.5
Info: ENERGY OUTPUT STEPS    100000
Info: ENERGY EVALUATION STEPS    100000
Info: OUTPUT ENERGY PRECISION 4
Info: CROSSTERM ENERGY INCLUDED IN DIHEDRAL
Info: TIMING OUTPUT STEPS    1000000
Info: PRESSURE OUTPUT STEPS  100000
Info: ALCHEMICAL FEP ON
Info: FEP CURRENT LAMBDA VALUE     1
Info: FEP COMPARISON LAMBDA VALUE  0.95
Info: FEP INTRA-ALCHEMICAL NON-BONDED INTERACTIONS WILL BE RETAINED
Info: FEP INTRA-ALCHEMICAL BONDED INTERACTIONS WILL BE RETAINED
Info: FEP VDW SHIFTING COEFFICIENT 5
Info: FEP ELEC. ACTIVE FOR ANNIHILATED PARTICLES BETWEEN LAMBDA = 0 AND LAMBDA = 0.5
Info: FEP ELEC. ACTIVE FOR EXNIHILATED PARTICLES BETWEEN LAMBDA = 0.5 AND LAMBDA = 1
Info: FEP VDW ACTIVE FOR ANNIHILATED PARTICLES BETWEEN LAMBDA = 0 AND LAMBDA = 1
Info: FEP VDW ACTIVE FOR EXNIHILATED PARTICLES BETWEEN LAMBDA = 0 AND LAMBDA = 1
Info: FEP BOND ACTIVE FOR ANNIHILATED PARTICLES BETWEEN LAMBDA = 1 AND LAMBDA = 1
Info: FEP BOND ACTIVE FOR EXNIHILATED PARTICLES BETWEEN LAMBDA = 0 AND LAMBDA = 0
Info: LANGEVIN DYNAMICS ACTIVE
Info: LANGEVIN TEMPERATURE   300
Info: LANGEVIN USING BBK INTEGRATOR
Info: LANGEVIN DAMPING COEFFICIENT IS 1 INVERSE PS
Info: LANGEVIN DYNAMICS APPLIED TO HYDROGENS
Info: LANGEVIN PISTON PRESSURE CONTROL ACTIVE
Info:        TARGET PRESSURE IS 1.01325 BAR
Info:     OSCILLATION PERIOD IS 50 FS
Info:             DECAY TIME IS 25 FS
Info:     PISTON TEMPERATURE IS 300 K
Info:       PRESSURE CONTROL IS GROUP-BASED
Info:    INITIAL STRAIN RATE IS 0.000278877 0.000278877 0.000278877
Info:       CELL FLUCTUATION IS ISOTROPIC
Info: PARTICLE MESH EWALD (PME) ACTIVE
Info: PME TOLERANCE               1e-06
Info: PME EWALD COEFFICIENT       0.348832
Info: PME INTERPOLATION ORDER     4
Info: PME GRID DIMENSIONS         36 32 32
Info: PME MAXIMUM GRID SPACING    1
Info: PME CALCULATION WILL BE PERFORMED ON GPU
Info: FULL ELECTROSTATIC EVALUATION FREQUENCY      2
Info: USING VERLET I (r-RESPA) MTS SCHEME.
Info: C1 SPLITTING OF LONG RANGE ELECTROSTATICS
Info: PLACING ATOMS IN PATCHES BY HYDROGEN GROUPS
Info: RIGID BONDS TO HYDROGEN : ALL
Info:         ERROR TOLERANCE : 1e-08
Info:          MAX ITERATIONS : 100
Info: RIGID WATER USING SETTLE ALGORITHM
Info: RANDOM NUMBER SEED     1743978536
Info: USE HYDROGEN BONDS?    NO
Info: Using AMBER format force field!
Info: AMBER PARM FILE        mobley_2402487.prmtop
Info: COORDINATE PDB         mobley_2402487.pdb
Info: Exclusions will be read from PARM file!
Info: SCNB (VDW SCALING)     2
Info: USING ARITHMETIC MEAN TO COMBINE L-J SIGMA PARAMETERS
Info: BINARY COORDINATES     mobley_2402487_equil.coor
Info: SUMMARY OF PARAMETERS:
Info: 9 BONDS
Info: 12 ANGLES
Info:   12 HARMONIC
Info:   0 COSINE-BASED
Info: 15 DIHEDRAL
Info: 0 IMPROPER
Info: 0 CROSSTERM
Info: 0 VDW
Info: 36 VDW_PAIRS
Info: 0 NBTHOLE_PAIRS
Info: To read alchdata from file: mobley_2402487.pdb
Info: To read alchflag data from column: 5
Info: STRUCTURE SUMMARY:
Info: 2927 ATOMS
Info: 2926 BONDS
Info: 38 ANGLES
Info: 64 DIHEDRALS
Info: 0 IMPROPERS
Info: 0 CROSSTERMS
Info: 3004 EXCLUSIONS
Info: 2916 RIGID BONDS
Info: ALCH: 0 ATOMS TO DISAPPEAR IN FINAL STATE
Info: ALCH: 23 ATOMS TO APPEAR IN FINAL STATE
Info: 5865 DEGREES OF FREEDOM
Info: 979 HYDROGEN GROUPS
Info: 4 ATOMS IN LARGEST HYDROGEN GROUP
Info: 979 MIGRATION GROUPS
Info: 4 ATOMS IN LARGEST MIGRATION GROUP
Info: TOTAL MASS = 17599.7 amu
Info: TOTAL CHARGE = 0.000100091 e
Info: MASS DENSITY = 0.965344 g/cm^3
Info: ATOM DENSITY = 0.0966811 atoms/A^3
Info: ADDED 0 IMPLICIT EXCLUSIONS
Info: NONBONDED TABLE R-SQUARED SPACING: 0.0625
Info: NONBONDED TABLE SIZE: 705 POINTS
Info: REMOVING COM VELOCITY 0.0515232 -0.00265985 -0.0653386
Info: Use 3D box decompostion in PME FFT.
Info: Updated CUDA force table with 4096 elements.
Info: Updated CUDA LJ table with 8 x 8 elements.
Info: Found 22 unique exclusion lists needing 64 bytes
TCL: Running for 1500000 steps
ETITLE: TS BOND ANGLE DIHED IMPRP ELECT VDW BOUNDARY MISC KINETIC TOTAL TEMP POTENTIAL TOTALAVG TEMPAVG PRESSURE GPRESSURE VOLUME PRESSAVG GPRESSAVG
ENERGY: 0 4.0634 8.4503 8.5376 0.0000 -10518.9640 1348.9071 0.0000 0.0000 1763.6739 -7385.3317 302.6500 -9149.0056 -7385.3317 302.6500 -449.8400 -380.2206 30274.7970 -449.8400 -380.2206
ENERGY: 300000 4.0348 11.1578 7.6401 0.0000 -10609.3642 1397.6915 0.0000 0.0000 1771.2973 -7417.5428 303.9582 -9188.8401 -7430.7648 301.9841 -244.4777 -217.2223 30667.4061 -377.6668 -307.7486
ENERGY: 600000 3.9747 8.6301 8.4457 0.0000 -10617.6878 1393.5958 0.0000 0.0000 1739.9023 -7463.1392 298.5707 -9203.0415 -7470.3959 300.9196 -417.6734 -286.1112 30619.3294 -351.5217 -273.1477
ENERGY: 900000 2.3426 8.1372 7.7878 0.0000 -10822.3327 1437.8261 0.0000 0.0000 1759.4682 -7606.7708 301.9283 -9366.2390 -7463.2523 302.3428 -63.5718 -7.1459 29697.0162 -270.0796 -185.9689
ENERGY: 1200000 3.3973 10.7297 9.1772 0.0000 -10737.0168 1436.2965 0.0000 0.0000 1734.6400 -7542.7761 297.6677 -9277.4161 -7471.1015 302.4168 -39.6404 1.0518 29997.9534 -197.8961 -114.4288
ENERGY: 1500000 1.5620 8.4431 8.3874 0.0000 -10707.7670 1480.9086 0.0000 0.0000 1775.9473 -7432.5186 304.7561 -9208.4659 -7463.2713 303.0626 654.8099 719.3589 29926.7808 -159.7626 -82.5929
TCL: Running FEP window   2: Lambda1 0.95   Lambda2 0.8999999999999999 [dLambda -0.050000000000000044]
TCL: Setting parameter firsttimestep to 0
TCL: Setting parameter alchLambda to 0.95
Info: NONBONDED TABLE R-SQUARED SPACING: 0.0625
Info: NONBONDED TABLE SIZE: 705 POINTS
TCL: Setting parameter alchLambda2 to 0.8999999999999999
Info: NONBONDED TABLE R-SQUARED SPACING: 0.0625
Info: NONBONDED TABLE SIZE: 705 POINTS
TCL: Running for 1500000 steps
ETITLE: TS BOND ANGLE DIHED IMPRP ELECT VDW BOUNDARY MISC KINETIC TOTAL TEMP POTENTIAL TOTALAVG TEMPAVG PRESSURE GPRESSURE VOLUME PRESSAVG GPRESSAVG
ENERGY: 0 1.5620 8.4431 8.3874 0.0000 -10705.6147 1480.0367 0.0000 0.0000 1775.0670 -7432.1185 304.6051 -9207.1855 -7432.1185 304.6051 601.0545 690.4377 29926.7808 601.0545 690.4377
ENERGY: 300000 2.7016 14.4573 8.4104 0.0000 -10494.5085 1275.5228 0.0000 0.0000 1768.1043 -7425.3120 303.4103 -9193.4164 -7458.9642 302.1475 -1079.0615 -951.7045 30245.4153 -193.3703 -85.6908
ENERGY: 600000 4.0434 8.6846 9.3316 0.0000 -10789.3837 1469.1398 0.0000 0.0000 1705.1480 -7593.0364 292.6068 -9298.1844 -7487.7157 301.4858 148.4646 200.7677 30472.4949 -129.6672 -45.5317
ENERGY: 900000 1.0665 15.3761 13.2814 0.0000 -10499.3003 1332.2663 0.0000 0.0000 1720.7961 -7416.5139 295.2921 -9137.3100 -7472.7801 300.4995 -481.3740 -484.8639 30423.2657 -225.9085 -163.5835
ENERGY: 1200000 7.7264 11.8050 9.9313 0.0000 -10844.1874 1568.2416 0.0000 0.0000 1765.2975 -7481.1855 302.9286 -9246.4831 -7466.4857 300.2243 1227.5234 1260.5608 29831.1152 -98.3178 -34.0465
ENERGY: 1500000 1.6967 10.8912 10.9105 0.0000 -10675.8972 1393.1553 0.0000 0.0000 1678.6945 -7580.5491 288.0673 -9259.2436 -7482.5094 299.2155 -267.4391 -285.5678 29853.5561 -70.5282 -9.4623
TCL: Running FEP window   3: Lambda1 0.8999999999999999 Lambda2 0.8499999999999999 [dLambda -0.050000000000000044]
TCL: Setting parameter firsttimestep to 0
TCL: Setting parameter alchLambda to 0.8999999999999999
Info: NONBONDED TABLE R-SQUARED SPACING: 0.0625
Info: NONBONDED TABLE SIZE: 705 POINTS
TCL: Setting parameter alchLambda2 to 0.8499999999999999
Info: NONBONDED TABLE R-SQUARED SPACING: 0.0625
Info: NONBONDED TABLE SIZE: 705 POINTS
TCL: Running for 1500000 steps
ETITLE: TS BOND ANGLE DIHED IMPRP ELECT VDW BOUNDARY MISC KINETIC TOTAL TEMP POTENTIAL TOTALAVG TEMPAVG PRESSURE GPRESSURE VOLUME PRESSAVG GPRESSAVG
ENERGY: 0 1.6966 10.8912 10.9105 0.0000 -10673.3608 1392.0490 0.0000 0.0000 1677.7989 -7580.0146 287.9137 -9257.8135 -7580.0146 287.9137 -394.0458 -312.6013 29853.5561 -394.0458 -312.6013
ENERGY: 300000 2.7040 8.1605 10.1886 0.0000 -10648.2808 1485.3960 0.0000 0.0000 1758.5417 -7383.2900 301.7693 -9141.8317 -7497.7692 298.0742 762.7311 833.5879 30059.9237 -14.7485 39.9085
ENERGY: 600000 5.0511 12.1846 7.5120 0.0000 -10774.7000 1432.8933 0.0000 0.0000 1761.6021 -7555.4570 302.2945 -9317.0591 -7476.5405 301.1795 -37.2005 -8.5873 29945.3284 -73.8126 -15.9129
ENERGY: 900000 5.0403 10.6681 10.8946 0.0000 -10598.2954 1444.8756 0.0000 0.0000 1791.3267 -7335.4901 307.3953 -9126.8168 -7448.4574 302.4176 567.8050 648.5048 30273.3818 -54.2300 6.9736
ENERGY: 1200000 3.1100 11.4292 10.5770 0.0000 -10802.8760 1480.1412 0.0000 0.0000 1699.8634 -7597.7551 291.7000 -9297.6185 -7467.8049 300.5451 349.4737 405.8044 29834.6968 -79.8036 -16.9019
ENERGY: 1500000 1.1611 7.1938 9.1192 0.0000 -10693.7575 1413.7549 0.0000 0.0000 1794.4755 -7468.0530 307.9356 -9262.5285 -7465.7944 301.3401 57.1117 155.4839 29680.8213 -108.6440 -44.2605
TCL: Running FEP window   4: Lambda1 0.8499999999999999 Lambda2 0.7999999999999998 [dLambda -0.050000000000000044]
TCL: Setting parameter firsttimestep to 0
TCL: Setting parameter alchLambda to 0.8499999999999999
Info: NONBONDED TABLE R-SQUARED SPACING: 0.0625
Info: NONBONDED TABLE SIZE: 705 POINTS
TCL: Setting parameter alchLambda2 to 0.7999999999999998
Info: NONBONDED TABLE R-SQUARED SPACING: 0.0625
Info: NONBONDED TABLE SIZE: 705 POINTS
TCL: Running for 1500000 steps
ETITLE: TS BOND ANGLE DIHED IMPRP ELECT VDW BOUNDARY MISC KINETIC TOTAL TEMP POTENTIAL TOTALAVG TEMPAVG PRESSURE GPRESSURE VOLUME PRESSAVG GPRESSAVG
ENERGY: 0 1.1611 7.1938 9.1192 0.0000 -10691.9474 1414.0488 0.0000 0.0000 1793.5695 -7466.8550 307.7801 -9260.4245 -7466.8550 307.7801 56.0961 146.8543 29680.8213 56.0961 146.8543
ENERGY: 300000 3.7549 7.7218 9.3955 0.0000 -10679.7609 1461.3611 0.0000 0.0000 1729.5985 -7467.9291 296.8026 -9197.5276 -7457.3990 301.2035 347.0275 350.8055 30476.7626 48.1068 104.1698
ENERGY: 600000 5.7771 8.0918 9.2127 0.0000 -10747.4476 1446.4270 0.0000 0.0000 1797.6332 -7480.3058 308.4775 -9277.9390 -7449.1709 304.4123 -85.2263 -49.9346 30169.2440 -66.7517 -22.7460
ENERGY: 900000 5.4115 14.6774 12.3150 0.0000 -10684.6983 1390.2222 0.0000 0.0000 1830.2442 -7431.8281 314.0736 -9262.0722 -7456.7915 304.1526 -387.8573 -338.5610 30201.5803 -50.5379 -0.0409
ENERGY: 1200000 1.7656 9.7600 8.8862 0.0000 -10713.9446 1456.5280 0.0000 0.0000 1758.6877 -7478.3172 301.7943 -9237.0049 -7458.0629 302.9737 443.4783 537.2188 30090.6521 34.1336 95.8541
ENERGY: 1500000 2.7830 8.1443 8.1842 0.0000 -10493.7997 1295.7542 0.0000 0.0000 1773.9438 -7404.9902 304.4123 -9178.9340 -7460.1929 303.1912 -1069.7052 -1020.4424 30484.3196 -25.1665 41.8788
TCL: Running FEP window   5: Lambda1 0.7999999999999998 Lambda2 0.7499999999999998 [dLambda -0.050000000000000044]
TCL: Setting parameter firsttimestep to 0
TCL: Setting parameter alchLambda to 0.7999999999999998
Info: NONBONDED TABLE R-SQUARED SPACING: 0.0625
Info: NONBONDED TABLE SIZE: 705 POINTS
TCL: Setting parameter alchLambda2 to 0.7499999999999998
Info: NONBONDED TABLE R-SQUARED SPACING: 0.0625
Info: NONBONDED TABLE SIZE: 705 POINTS
TCL: Running for 1500000 steps
ETITLE: TS BOND ANGLE DIHED IMPRP ELECT VDW BOUNDARY MISC KINETIC TOTAL TEMP POTENTIAL TOTALAVG TEMPAVG PRESSURE GPRESSURE VOLUME PRESSAVG GPRESSAVG
ENERGY: 0 2.7830 8.1443 8.1842 0.0000 -10492.3203 1295.9209 0.0000 0.0000 1773.1204 -7404.1675 304.2710 -9177.2879 -7404.1675 304.2710 -1103.2661 -1033.5368 30484.3196 -1103.2661 -1033.5368
ENERGY: 300000 4.3352 12.8319 9.8617 0.0000 -10649.5939 1402.9933 0.0000 0.0000 1736.2435 -7483.3283 297.9429 -9219.5718 -7480.4903 299.2192 -44.5583 4.3135 30025.0918 -494.1825 -440.0492
ENERGY: 600000 7.0421 9.4106 8.3873 0.0000 -10651.8389 1365.8827 0.0000 0.0000 1751.2186 -7509.8976 300.5126 -9261.1163 -7473.6563 298.8643 -486.7543 -410.3621 30057.4609 -511.8954 -458.0503
ENERGY: 900000 6.5924 7.7484 8.0566 0.0000 -10684.8815 1420.1620 0.0000 0.0000 1719.6351 -7522.6870 295.0928 -9242.3221 -7486.4318 298.8642 206.1242 333.4549 29514.9740 -303.2800 -242.4512
ENERGY: 1200000 1.9474 11.2637 8.2236 0.0000 -10705.8823 1447.0493 0.0000 0.0000 1762.6746 -7474.7237 302.4785 -9237.3983 -7481.3777 299.2232 73.4349 172.8510 30413.1593 -167.6653 -98.8664
ENERGY: 1500000 8.1936 9.1076 10.0775 0.0000 -10804.0299 1517.6951 0.0000 0.0000 1795.7318 -7463.2243 308.1512 -9258.9561 -7469.1699 301.0838 794.1740 853.9131 29939.3757 -116.0144 -45.6178
TCL: Running FEP window   6: Lambda1 0.7499999999999998 Lambda2 0.6999999999999997 [dLambda -0.050000000000000044]
TCL: Setting parameter firsttimestep to 0
TCL: Setting parameter alchLambda to 0.7499999999999998
Info: NONBONDED TABLE R-SQUARED SPACING: 0.0625
Info: NONBONDED TABLE SIZE: 705 POINTS
TCL: Setting parameter alchLambda2 to 0.6999999999999997
Info: NONBONDED TABLE R-SQUARED SPACING: 0.0625
Info: NONBONDED TABLE SIZE: 705 POINTS
TCL: Running for 1500000 steps
ETITLE: TS BOND ANGLE DIHED IMPRP ELECT VDW BOUNDARY MISC KINETIC TOTAL TEMP POTENTIAL TOTALAVG TEMPAVG PRESSURE GPRESSURE VOLUME PRESSAVG GPRESSAVG
ENERGY: 0 8.1937 9.1076 10.0775 0.0000 -10802.4491 1517.6781 0.0000 0.0000 1794.8892 -7462.5030 308.0066 -9257.3922 -7462.5030 308.0066 760.5360 842.3811 29939.3757 760.5360 842.3811
ENERGY: 300000 3.0390 12.2978 10.3523 0.0000 -10820.9974 1504.2600 0.0000 0.0000 1736.2855 -7554.7628 297.9501 -9291.0483 -7482.2817 303.1984 633.0865 645.5305 29848.2132 84.6295 130.6803
ENERGY: 600000 4.9693 10.5366 11.3461 0.0000 -10678.8436 1398.5499 0.0000 0.0000 1779.5277 -7473.9141 305.3705 -9253.4418 -7489.4461 301.7222 -504.7955 -432.1170 30509.7296 40.2965 88.8495
ENERGY: 900000 2.3398 6.4857 8.5353 0.0000 -10711.3145 1427.9334 0.0000 0.0000 1737.4364 -7528.5840 298.1476 -9266.0204 -7489.6212 302.1744 -134.4888 -126.3482 30315.9334 29.1080 81.3893
ENERGY: 1200000 4.2006 11.1186 8.8126 0.0000 -10698.2467 1441.5361 0.0000 0.0000 1713.2905 -7519.2882 294.0041 -9232.5788 -7494.1169 301.6366 113.4579 196.8087 30095.7039 78.2705 137.9958
ENERGY: 1500000 1.5702 10.4252 7.9450 0.0000 -10643.8838 1400.7216 0.0000 0.0000 1787.3062 -7435.9156 306.7053 -9223.2218 -7491.0930 302.8609 -267.0497 -189.9467 30192.6461 16.4872 79.7364
TCL: Running FEP window   7: Lambda1 0.6999999999999997 Lambda2 0.6499999999999997 [dLambda -0.050000000000000044]
TCL: Setting parameter firsttimestep to 0
TCL: Setting parameter alchLambda to 0.6999999999999997
Info: NONBONDED TABLE R-SQUARED SPACING: 0.0625
Info: NONBONDED TABLE SIZE: 705 POINTS
TCL: Setting parameter alchLambda2 to 0.6499999999999997
Info: NONBONDED TABLE R-SQUARED SPACING: 0.0625
Info: NONBONDED TABLE SIZE: 705 POINTS
TCL: Running for 1500000 steps
ETITLE: TS BOND ANGLE DIHED IMPRP ELECT VDW BOUNDARY MISC KINETIC TOTAL TEMP POTENTIAL TOTALAVG TEMPAVG PRESSURE GPRESSURE VOLUME PRESSAVG GPRESSAVG
ENERGY: 0 1.5702 10.4252 7.9450 0.0000 -10642.1093 1400.6569 0.0000 0.0000 1786.4390 -7435.0731 306.5565 -9221.5121 -7435.0731 306.5565 -285.5433 -200.9754 30192.6461 -285.5433 -200.9754
ENERGY: 300000 3.2463 10.4172 9.2215 0.0000 -10829.9848 1543.2945 0.0000 0.0000 1712.1020 -7551.7035 293.8001 -9263.8055 -7473.1748 301.7142 879.3395 927.7470 29939.8987 215.3589 287.2258
ENERGY: 600000 2.9768 9.8422 9.4211 0.0000 -10691.5728 1456.1233 0.0000 0.0000 1761.6387 -7451.5708 302.3007 -9213.2095 -7466.7559 301.2990 600.5522 610.1550 30102.5769 82.5036 144.6128
ENERGY: 900000 3.3619 8.8635 10.7339 0.0000 -10576.0063 1362.1488 0.0000 0.0000 1775.6248 -7415.2733 304.7008 -9190.8981 -7469.4662 301.3041 -479.2464 -375.0758 30272.9350 -81.2220 -10.8359
ENERGY: 1200000 3.2051 11.5292 10.0836 0.0000 -10668.2441 1438.6754 0.0000 0.0000 1766.0560 -7438.6948 303.0588 -9204.7508 -7465.6623 301.8040 238.6682 252.5669 30108.2655 -81.8293 -18.0309
ENERGY: 1500000 2.9758 6.8888 8.5026 0.0000 -10744.4303 1465.4377 0.0000 0.0000 1743.0443 -7517.5811 299.1099 -9260.6254 -7473.8306 301.8187 214.6694 299.8636 30247.0144 28.3612 88.4155
TCL: Running FEP window   8: Lambda1 0.6499999999999997 Lambda2 0.5999999999999996 [dLambda -0.050000000000000044]
TCL: Setting parameter firsttimestep to 0
TCL: Setting parameter alchLambda to 0.6499999999999997
Info: NONBONDED TABLE R-SQUARED SPACING: 0.0625
Info: NONBONDED TABLE SIZE: 705 POINTS
TCL: Setting parameter alchLambda2 to 0.5999999999999996
Info: NONBONDED TABLE R-SQUARED SPACING: 0.0625
Info: NONBONDED TABLE SIZE: 705 POINTS
TCL: Running for 1500000 steps
ETITLE: TS BOND ANGLE DIHED IMPRP ELECT VDW BOUNDARY MISC KINETIC TOTAL TEMP POTENTIAL TOTALAVG TEMPAVG PRESSURE GPRESSURE VOLUME PRESSAVG GPRESSAVG
ENERGY: 0 2.9758 6.8887 8.5026 0.0000 -10743.6222 1464.8995 0.0000 0.0000 1742.1898 -7518.1658 298.9633 -9260.3556 -7518.1658 298.9633 203.0247 280.7017 30247.0144 203.0247 280.7017
ENERGY: 300000 4.4405 13.3773 8.5249 0.0000 -10570.6599 1333.0027 0.0000 0.0000 1765.2656 -7446.0489 302.9231 -9211.3146 -7470.4567 300.3769 -677.9761 -640.9427 30307.8181 -275.8065 -222.1304
ENERGY: 600000 3.4628 8.2169 8.9445 0.0000 -10625.4284 1415.2639 0.0000 0.0000 1766.3835 -7423.1568 303.1150 -9189.5404 -7483.4611 300.4930 106.9777 127.2609 29887.8658 -343.6705 -285.5313
ENERGY: 900000 3.5582 13.1310 8.2777 0.0000 -10752.2997 1505.3402 0.0000 0.0000 1748.5913 -7473.4012 300.0618 -9221.9925 -7481.9004 300.3062 338.8567 458.1413 30238.6707 -228.8717 -154.6469
ENERGY: 1200000 2.4557 10.4078 11.5132 0.0000 -10678.8492 1442.5868 0.0000 0.0000 1803.6669 -7408.2187 309.5129 -9211.8856 -7476.4719 301.1083 152.6970 199.5724 30091.4646 -220.4524 -148.9697
ENERGY: 1500000 4.0021 11.1336 7.9838 0.0000 -10699.2141 1467.5421 0.0000 0.0000 1774.8386 -7433.7139 304.5659 -9208.5525 -7476.3351 300.7934 351.1224 437.4944 30017.2980 -219.9979 -147.3200
TCL: Running FEP window   9: Lambda1 0.5999999999999996 Lambda2 0.5499999999999996 [dLambda -0.050000000000000044]
TCL: Setting parameter firsttimestep to 0
TCL: Setting parameter alchLambda to 0.5999999999999996
Info: NONBONDED TABLE R-SQUARED SPACING: 0.0625
Info: NONBONDED TABLE SIZE: 705 POINTS
TCL: Setting parameter alchLambda2 to 0.5499999999999996
Info: NONBONDED TABLE R-SQUARED SPACING: 0.0625
Info: NONBONDED TABLE SIZE: 705 POINTS
TCL: Running for 1500000 steps
ETITLE: TS BOND ANGLE DIHED IMPRP ELECT VDW BOUNDARY MISC KINETIC TOTAL TEMP POTENTIAL TOTALAVG TEMPAVG PRESSURE GPRESSURE VOLUME PRESSAVG GPRESSAVG
ENERGY: 0 4.0021 11.1336 7.9838 0.0000 -10697.2586 1468.3137 0.0000 0.0000 1773.9813 -7431.8440 304.4188 -9205.8253 -7431.8440 304.4188 356.0747 433.6237 30017.2980 356.0747 433.6237
ENERGY: 300000 2.6289 11.0060 10.0590 0.0000 -10584.8675 1342.9787 0.0000 0.0000 1714.2639 -7503.9310 294.1711 -9218.1949 -7461.4545 302.1865 -503.6163 -505.4272 30214.7543 98.5395 163.8812
ENERGY: 600000 3.3845 5.4695 7.3903 0.0000 -10528.1000 1290.4188 0.0000 0.0000 1751.2479 -7470.1890 300.5177 -9221.4369 -7469.3226 301.2204 -862.9378 -823.8576 30137.1810 -94.9932 -43.9108
ENERGY: 900000 3.9878 7.1001 10.0562 0.0000 -10669.5677 1375.7546 0.0000 0.0000 1765.8852 -7506.7838 303.0295 -9272.6691 -7465.7135 301.0478 -488.9270 -431.0726 29779.3006 -169.7103 -111.2569
ENERGY: 1200000 4.3079 12.7178 11.5358 0.0000 -10542.4982 1397.1009 0.0000 0.0000 1728.2263 -7388.6096 296.5671 -9116.8359 -7452.8322 302.1257 -76.2867 17.3136 30337.1386 -124.9132 -57.5576
ENERGY: 1500000 4.9266 10.0201 9.1147 0.0000 -10464.6554 1323.1285 0.0000 0.0000 1739.4791 -7377.9864 298.4981 -9117.4655 -7437.3593 302.5511 -531.7508 -517.7879 30460.9675 -115.1781 -49.4013
TCL: Running FEP window  10: Lambda1 0.5499999999999996 Lambda2 0.4999999999999996 [dLambda -0.04999999999999999]
TCL: Setting parameter firsttimestep to 0
TCL: Setting parameter alchLambda to 0.5499999999999996
Info: NONBONDED TABLE R-SQUARED SPACING: 0.0625
Info: NONBONDED TABLE SIZE: 705 POINTS
TCL: Setting parameter alchLambda2 to 0.4999999999999996
Info: NONBONDED TABLE R-SQUARED SPACING: 0.0625
Info: NONBONDED TABLE SIZE: 705 POINTS
TCL: Running for 1500000 steps
ETITLE: TS BOND ANGLE DIHED IMPRP ELECT VDW BOUNDARY MISC KINETIC TOTAL TEMP POTENTIAL TOTALAVG TEMPAVG PRESSURE GPRESSURE VOLUME PRESSAVG GPRESSAVG
ENERGY: 0 4.9266 10.0201 9.1147 0.0000 -10463.5330 1323.1325 0.0000 0.0000 1738.5881 -7377.7509 298.3452 -9116.3391 -7377.7509 298.3452 -602.4119 -527.4591 30460.9675 -602.4119 -527.4591
ENERGY: 300000 4.4887 8.2314 7.9455 0.0000 -10654.3858 1445.6947 0.0000 0.0000 1691.4737 -7496.5518 290.2603 -9188.0255 -7437.3390 296.4878 493.6237 564.5908 29619.1143 87.4741 166.2259
ENERGY: 600000 2.1324 13.9056 8.7536 0.0000 -10865.6952 1501.1370 0.0000 0.0000 1730.2553 -7609.5114 296.9153 -9339.7667 -7465.6570 297.4125 461.3858 505.6107 29676.4795 58.0847 126.7936
ENERGY: 900000 3.7113 7.4202 11.1830 0.0000 -10709.4327 1492.7198 0.0000 0.0000 1765.3922 -7429.0061 302.9449 -9194.3984 -7457.3434 299.9047 714.5695 732.7931 29808.7760 159.2734 228.7270
ENERGY: 1200000 3.1540 10.7843 12.4098 0.0000 -10696.9871 1473.6376 0.0000 0.0000 1749.7904 -7447.2111 300.2675 -9197.0015 -7468.5418 299.5914 613.2877 659.9188 29945.6781 158.4772 226.9646
ENERGY: 1500000 4.1497 11.6360 8.7924 0.0000 -10743.5608 1465.7230 0.0000 0.0000 1743.2194 -7510.0402 299.1400 -9253.2596 -7469.8165 299.2606 536.7749 557.7565 29321.1130 119.8191 182.2207
TCL: Running FEP window  11: Lambda1 0.4999999999999996 Lambda2 0.4499999999999996 [dLambda -0.04999999999999999]
TCL: Setting parameter firsttimestep to 0
TCL: Setting parameter alchLambda to 0.4999999999999996
Info: NONBONDED TABLE R-SQUARED SPACING: 0.0625
Info: NONBONDED TABLE SIZE: 705 POINTS
TCL: Setting parameter alchLambda2 to 0.4499999999999996
Info: NONBONDED TABLE R-SQUARED SPACING: 0.0625
Info: NONBONDED TABLE SIZE: 705 POINTS
TCL: Running for 1500000 steps
ETITLE: TS BOND ANGLE DIHED IMPRP ELECT VDW BOUNDARY MISC KINETIC TOTAL TEMP POTENTIAL TOTALAVG TEMPAVG PRESSURE GPRESSURE VOLUME PRESSAVG GPRESSAVG
ENERGY: 0 4.1497 11.6360 8.7924 0.0000 -10742.7045 1466.1525 0.0000 0.0000 1742.3637 -7509.6102 298.9931 -9251.9739 -7509.6102 298.9931 473.6985 551.6780 29321.1130 473.6985 551.6780
ENERGY: 300000 4.5053 8.2507 9.1364 0.0000 -10668.2426 1409.1391 0.0000 0.0000 1788.6160 -7448.5951 306.9301 -9237.2111 -7449.3577 302.8130 -187.5102 -86.1873 30119.3033 140.1447 183.2097
ENERGY: 600000 3.0652 8.9988 8.7153 0.0000 -10770.0326 1460.7789 0.0000 0.0000 1793.1358 -7495.3387 307.7057 -9288.4745 -7473.0654 301.8082 238.5753 286.2752 29613.1827 77.7526 127.9325
ENERGY: 900000 4.8665 7.9720 9.3751 0.0000 -10534.0866 1324.7715 0.0000 0.0000 1721.4406 -7465.6609 295.4027 -9187.1015 -7466.1694 301.8285 -726.2031 -574.6151 30365.8014 -78.8424 -17.9799
ENERGY: 1200000 5.5012 8.8050 9.4859 0.0000 -10543.7913 1292.7498 0.0000 0.0000 1745.8868 -7481.3626 299.5977 -9227.2493 -7462.0230 301.6787 -1073.6811 -1008.2531 30261.4469 -151.4513 -93.5040
ENERGY: 1500000 6.4997 19.3916 7.4755 0.0000 -10571.7243 1334.0702 0.0000 0.0000 1754.9818 -7449.3055 301.1584 -9204.2873 -7464.3869 301.5558 -779.3323 -680.6817 30308.2498 -124.8201 -60.5194
TCL: Running FEP window  12: Lambda1 0.4499999999999996 Lambda2 0.39999999999999963 [dLambda -0.04999999999999999]
TCL: Setting parameter firsttimestep to 0
TCL: Setting parameter alchLambda to 0.4499999999999996
Info: NONBONDED TABLE R-SQUARED SPACING: 0.0625
Info: NONBONDED TABLE SIZE: 705 POINTS
TCL: Setting parameter alchLambda2 to 0.39999999999999963
Info: NONBONDED TABLE R-SQUARED SPACING: 0.0625
Info: NONBONDED TABLE SIZE: 705 POINTS
TCL: Running for 1500000 steps
ETITLE: TS BOND ANGLE DIHED IMPRP ELECT VDW BOUNDARY MISC KINETIC TOTAL TEMP POTENTIAL TOTALAVG TEMPAVG PRESSURE GPRESSURE VOLUME PRESSAVG GPRESSAVG
ENERGY: 0 6.4997 19.3917 7.4755 0.0000 -10571.7235 1334.7242 0.0000 0.0000 1754.1151 -7449.5174 301.0097 -9203.6325 -7449.5174 301.0097 -765.1013 -681.8413 30308.2498 -765.1013 -681.8413
ENERGY: 300000 1.5137 11.1874 9.4626 0.0000 -10631.1840 1478.5540 0.0000 0.0000 1727.4801 -7402.9862 296.4391 -9130.4663 -7477.6096 298.0950 887.4789 954.1001 29830.7096 -215.1165 -115.7659
ENERGY: 600000 3.6096 10.4157 10.7912 0.0000 -10624.1426 1356.9078 0.0000 0.0000 1802.9220 -7439.4963 309.3850 -9242.4183 -7480.9044 299.3913 -262.4760 -211.8555 29567.9259 -233.4807 -151.1676
ENERGY: 900000 2.2832 10.9965 11.6329 0.0000 -10582.1875 1338.9599 0.0000 0.0000 1742.0001 -7476.3149 298.9307 -9218.3150 -7485.8240 298.7380 -458.8266 -429.4765 29542.3699 -271.2230 -207.5837
ENERGY: 1200000 4.8040 13.8337 8.8522 0.0000 -10587.5541 1414.6988 0.0000 0.0000 1732.5774 -7412.7881 297.3138 -9145.3655 -7485.6725 297.6121 133.5030 149.6395 30054.4200 -85.1016 -33.1140
ENERGY: 1500000 4.6308 10.2252 9.4740 0.0000 -10691.3799 1377.7211 0.0000 0.0000 1797.7787 -7491.5500 308.5024 -9289.3287 -7471.8533 299.0134 -392.6949 -344.1912 29685.6079 -36.5857 16.2488
TCL: Running FEP window  13: Lambda1 0.39999999999999963 Lambda2 0.34999999999999964 [dLambda -0.04999999999999999]
TCL: Setting parameter firsttimestep to 0
TCL: Setting parameter alchLambda to 0.39999999999999963
Info: NONBONDED TABLE R-SQUARED SPACING: 0.0625
Info: NONBONDED TABLE SIZE: 705 POINTS
TCL: Setting parameter alchLambda2 to 0.34999999999999964
Info: NONBONDED TABLE R-SQUARED SPACING: 0.0625
Info: NONBONDED TABLE SIZE: 705 POINTS
TCL: Running for 1500000 steps
ETITLE: TS BOND ANGLE DIHED IMPRP ELECT VDW BOUNDARY MISC KINETIC TOTAL TEMP POTENTIAL TOTALAVG TEMPAVG PRESSURE GPRESSURE VOLUME PRESSAVG GPRESSAVG
ENERGY: 0 4.6308 10.2252 9.4740 0.0000 -10691.3793 1378.1919 0.0000 0.0000 1796.8911 -7491.9662 308.3501 -9288.8573 -7491.9662 308.3501 -432.6795 -347.6510 29685.6079 -432.6795 -347.6510
ENERGY: 300000 1.0809 8.1773 12.3407 0.0000 -10642.2741 1439.0942 0.0000 0.0000 1756.9465 -7424.6345 301.4956 -9181.5810 -7468.6761 299.9799 -7.3979 5.6265 30359.6629 -351.4433 -290.5647
ENERGY: 600000 3.8144 8.0111 11.8435 0.0000 -10642.7589 1428.8115 0.0000 0.0000 1689.1520 -7501.1264 289.8619 -9190.2784 -7452.1739 301.4447 61.9362 46.1852 30046.6756 -110.5336 -47.9577
ENERGY: 900000 3.1877 12.8826 10.4140 0.0000 -10775.6032 1527.0753 0.0000 0.0000 1796.3345 -7425.7092 308.2546 -9222.0437 -7458.8723 300.6814 942.9272 1119.1358 29724.9404 75.8162 152.8973
ENERGY: 1200000 2.6987 10.2822 6.0912 0.0000 -10699.2634 1492.0659 0.0000 0.0000 1750.2378 -7437.8875 300.3443 -9188.1253 -7453.2314 299.9843 469.9546 530.0400 30354.3788 105.9593 181.5643
ENERGY: 1500000 3.8542 8.5370 12.0368 0.0000 -10689.7457 1416.0919 0.0000 0.0000 1763.2792 -7485.9466 302.5823 -9249.2259 -7456.3011 300.1104 -152.8268 -196.7670 30407.3391 131.0155 202.0820
TCL: Running FEP window  14: Lambda1 0.34999999999999964 Lambda2 0.29999999999999966 [dLambda -0.04999999999999999]
TCL: Setting parameter firsttimestep to 0
TCL: Setting parameter alchLambda to 0.34999999999999964
Info: NONBONDED TABLE R-SQUARED SPACING: 0.0625
Info: NONBONDED TABLE SIZE: 705 POINTS
TCL: Setting parameter alchLambda2 to 0.29999999999999966
Info: NONBONDED TABLE R-SQUARED SPACING: 0.0625
Info: NONBONDED TABLE SIZE: 705 POINTS
TCL: Running for 1500000 steps
ETITLE: TS BOND ANGLE DIHED IMPRP ELECT VDW BOUNDARY MISC KINETIC TOTAL TEMP POTENTIAL TOTALAVG TEMPAVG PRESSURE GPRESSURE VOLUME PRESSAVG GPRESSAVG
ENERGY: 0 3.8542 8.5370 12.0368 0.0000 -10689.7471 1415.9658 0.0000 0.0000 1762.4265 -7486.9269 302.4359 -9249.3533 -7486.9269 302.4359 -296.5917 -203.1619 30407.3391 -296.5917 -203.1619
ENERGY: 300000 3.0137 11.3152 7.0756 0.0000 -10662.4969 1383.9289 0.0000 0.0000 1750.6952 -7506.4684 300.4228 -9257.1636 -7458.6823 302.7086 -414.9110 -338.0202 29980.6150 -271.4459 -185.3726
ENERGY: 600000 2.6746 9.9548 8.1613 0.0000 -10794.4036 1512.3743 0.0000 0.0000 1788.4499 -7472.7886 306.9016 -9261.2386 -7461.9275 301.2566 669.5715 662.1370 29985.8489 5.5463 62.4767
ENERGY: 900000 3.9303 11.4102 10.3713 0.0000 -10654.3310 1396.4388 0.0000 0.0000 1709.3942 -7522.7862 293.3355 -9232.1804 -7452.5972 301.2026 25.2605 79.6955 29717.1022 -130.5680 -74.1289
ENERGY: 1200000 1.5759 9.8918 8.9903 0.0000 -10676.0104 1500.0799 0.0000 0.0000 1760.6944 -7394.7782 302.1387 -9155.4725 -7456.9746 300.8294 592.8599 733.5301 30188.5868 -182.6935 -105.9007
ENERGY: 1500000 2.9708 8.3864 11.3556 0.0000 -10545.8131 1385.9816 0.0000 0.0000 1725.8010 -7411.3176 296.1509 -9137.1186 -7464.1665 299.8503 -103.5241 7.1764 30167.9939 -173.5318 -95.7512
TCL: Running FEP window  15: Lambda1 0.29999999999999966 Lambda2 0.24999999999999967 [dLambda -0.04999999999999999]
TCL: Setting parameter firsttimestep to 0
TCL: Setting parameter alchLambda to 0.29999999999999966
Info: NONBONDED TABLE R-SQUARED SPACING: 0.0625
Info: NONBONDED TABLE SIZE: 705 POINTS
TCL: Setting parameter alchLambda2 to 0.24999999999999967
Info: NONBONDED TABLE R-SQUARED SPACING: 0.0625
Info: NONBONDED TABLE SIZE: 705 POINTS
TCL: Running for 1500000 steps
ETITLE: TS BOND ANGLE DIHED IMPRP ELECT VDW BOUNDARY MISC KINETIC TOTAL TEMP POTENTIAL TOTALAVG TEMPAVG PRESSURE GPRESSURE VOLUME PRESSAVG GPRESSAVG
ENERGY: 0 2.9708 8.3864 11.3556 0.0000 -10545.8125 1386.6778 0.0000 0.0000 1724.9248 -7411.4970 296.0006 -9136.4218 -7411.4970 296.0006 -81.0114 4.5729 30167.9939 -81.0114 4.5729
ENERGY: 300000 4.3570 9.5966 10.7005 0.0000 -10444.3834 1299.7257 0.0000 0.0000 1758.5746 -7361.4290 301.7749 -9120.0036 -7424.9347 301.1834 -680.0025 -646.2494 29878.5382 -465.4768 -404.4802
ENERGY: 600000 1.0506 8.8251 8.9960 0.0000 -10629.4508 1355.4556 0.0000 0.0000 1746.6581 -7508.4654 299.7300 -9255.1235 -7459.9860 300.4087 -625.1024 -527.3459 29724.2810 -526.0619 -451.6245
ENERGY: 900000 6.7450 7.3213 8.6608 0.0000 -10613.6321 1390.6974 0.0000 0.0000 1781.5032 -7418.7043 305.7095 -9200.2075 -7463.9430 300.9687 -268.5543 -244.3567 29921.2172 -420.1807 -354.7640
ENERGY: 1200000 0.6814 8.4791 9.2557 0.0000 -10667.3940 1400.1359 0.0000 0.0000 1724.5972 -7524.2447 295.9444 -9248.8419 -7463.6732 300.6492 -209.7598 -95.6923 29782.2073 -293.8813 -226.4269
ENERGY: 1500000 5.1221 9.5625 11.7760 0.0000 -10812.5118 1514.5657 0.0000 0.0000 1756.3023 -7515.1832 301.3850 -9271.4855 -7463.0671 300.2761 658.7349 806.7549 29550.7511 -271.1250 -203.7558
TCL: Running FEP window  16: Lambda1 0.24999999999999967 Lambda2 0.19999999999999968 [dLambda -0.04999999999999999]
TCL: Setting parameter firsttimestep to 0
TCL: Setting parameter alchLambda to 0.24999999999999967
Info: NONBONDED TABLE R-SQUARED SPACING: 0.0625
Info: NONBONDED TABLE SIZE: 705 POINTS
TCL: Setting parameter alchLambda2 to 0.19999999999999968
Info: NONBONDED TABLE R-SQUARED SPACING: 0.0625
Info: NONBONDED TABLE SIZE: 705 POINTS
TCL: Running for 1500000 steps
ETITLE: TS BOND ANGLE DIHED IMPRP ELECT VDW BOUNDARY MISC KINETIC TOTAL TEMP POTENTIAL TOTALAVG TEMPAVG PRESSURE GPRESSURE VOLUME PRESSAVG GPRESSAVG
ENERGY: 0 5.1221 9.5625 11.7760 0.0000 -10812.5127 1514.0170 0.0000 0.0000 1755.4472 -7516.5879 301.2383 -9272.0351 -7516.5879 301.2383 718.8872 798.4118 29550.7511 718.8872 798.4118
ENERGY: 300000 2.8236 12.2364 9.8477 0.0000 -10640.8504 1424.4651 0.0000 0.0000 1742.1352 -7449.3423 298.9539 -9191.4775 -7495.6812 298.4930 30.5612 122.0073 30189.0330 72.7818 134.5422
ENERGY: 600000 2.3785 11.4692 7.9657 0.0000 -10768.2843 1490.0829 0.0000 0.0000 1789.7428 -7466.6453 307.1235 -9256.3881 -7492.5730 300.1754 496.8969 606.7564 29786.7744 245.0625 302.2268
ENERGY: 900000 4.5277 10.8418 9.4976 0.0000 -10700.8500 1452.2098 0.0000 0.0000 1710.0746 -7513.6984 293.4522 -9223.7731 -7496.1468 299.4804 18.6120 43.3301 30161.3470 212.1030 258.9675
ENERGY: 1200000 2.1968 11.1718 8.7891 0.0000 -10750.3969 1444.6838 0.0000 0.0000 1742.6379 -7540.9174 299.0402 -9283.5553 -7500.5740 298.9325 261.0943 307.2564 29737.5380 135.3990 189.2594
ENERGY: 1500000 2.7587 14.4670 12.4990 0.0000 -10489.3047 1366.8518 0.0000 0.0000 1744.4973 -7348.2308 299.3592 -9092.7281 -7486.0046 298.8156 -338.6286 -287.5142 30424.7879 86.1169 143.0574
TCL: Running FEP window  17: Lambda1 0.19999999999999968 Lambda2 0.1499999999999997 [dLambda -0.04999999999999999]
TCL: Setting parameter firsttimestep to 0
TCL: Setting parameter alchLambda to 0.19999999999999968
Info: NONBONDED TABLE R-SQUARED SPACING: 0.0625
Info: NONBONDED TABLE SIZE: 705 POINTS
TCL: Setting parameter alchLambda2 to 0.1499999999999997
Info: NONBONDED TABLE R-SQUARED SPACING: 0.0625
Info: NONBONDED TABLE SIZE: 705 POINTS
TCL: Running for 1500000 steps
ETITLE: TS BOND ANGLE DIHED IMPRP ELECT VDW BOUNDARY MISC KINETIC TOTAL TEMP POTENTIAL TOTALAVG TEMPAVG PRESSURE GPRESSURE VOLUME PRESSAVG GPRESSAVG
ENERGY: 0 2.7588 14.4670 12.4990 0.0000 -10489.3037 1366.5560 0.0000 0.0000 1743.6468 -7349.3761 299.2133 -9093.0229 -7349.3761 299.2133 -380.8634 -294.9648 30424.7879 -380.8634 -294.9648
ENERGY: 300000 2.0378 7.3428 11.4407 0.0000 -10799.0481 1497.3157 0.0000 0.0000 1753.0979 -7527.8133 300.8351 -9280.9112 -7433.0417 299.6863 479.2322 556.4582 29487.5128 -67.8863 -5.5785
ENERGY: 600000 4.0962 11.8261 7.3948 0.0000 -10708.8247 1423.8905 0.0000 0.0000 1767.3891 -7494.2280 303.2875 -9261.6171 -7435.2549 303.5892 -339.6474 -324.7277 30279.5728 -88.8528 -39.2431
ENERGY: 900000 1.8428 7.7829 10.5262 0.0000 -10590.8842 1322.4773 0.0000 0.0000 1771.7798 -7476.4753 304.0410 -9248.2551 -7453.4094 303.9511 -916.8044 -889.0604 30267.5830 -102.6540 -46.4121
ENERGY: 1200000 2.1756 11.1668 10.4536 0.0000 -10720.3694 1436.5750 0.0000 0.0000 1802.0440 -7457.9545 309.2344 -9259.9985 -7454.9032 303.6944 -180.0791 -85.5608 29927.5961 -29.0611 27.2791
ENERGY: 1500000 3.7132 12.7327 7.9102 0.0000 -10689.8878 1474.5010 0.0000 0.0000 1775.3109 -7415.7197 304.6469 -9191.0306 -7458.6749 302.9449 542.3345 606.6768 30009.4201 -4.3602 52.5133
TCL: Running FEP window  18: Lambda1 0.1499999999999997 Lambda2 0.09999999999999969 [dLambda -0.05 ]
TCL: Setting parameter firsttimestep to 0
TCL: Setting parameter alchLambda to 0.1499999999999997
Info: NONBONDED TABLE R-SQUARED SPACING: 0.0625
Info: NONBONDED TABLE SIZE: 705 POINTS
TCL: Setting parameter alchLambda2 to 0.09999999999999969
Info: NONBONDED TABLE R-SQUARED SPACING: 0.0625
Info: NONBONDED TABLE SIZE: 705 POINTS
TCL: Running for 1500000 steps
ETITLE: TS BOND ANGLE DIHED IMPRP ELECT VDW BOUNDARY MISC KINETIC TOTAL TEMP POTENTIAL TOTALAVG TEMPAVG PRESSURE GPRESSURE VOLUME PRESSAVG GPRESSAVG
ENERGY: 0 3.7132 12.7327 7.9102 0.0000 -10689.8866 1474.3805 0.0000 0.0000 1774.4398 -7416.7102 304.4974 -9191.1500 -7416.7102 304.4974 522.9112 603.0350 30009.4201 522.9112 603.0350
ENERGY: 300000 2.0985 11.6357 10.7147 0.0000 -10734.8766 1509.3457 0.0000 0.0000 1763.5636 -7437.5185 302.6311 -9201.0821 -7444.4446 300.9079 899.0582 934.0685 29585.8005 409.6086 483.8104
ENERGY: 600000 6.2458 13.6133 11.3726 0.0000 -10699.6699 1517.9700 0.0000 0.0000 1769.4019 -7381.0662 303.6329 -9150.4681 -7446.4243 300.8407 619.9922 707.4567 30039.8289 381.8338 461.1929
ENERGY: 900000 1.0646 9.9406 9.9597 0.0000 -10624.3156 1442.9333 0.0000 0.0000 1800.7161 -7359.7013 309.0065 -9160.4175 -7446.8568 301.7861 86.9104 196.6559 30227.6170 195.0373 285.4198
ENERGY: 1200000 5.7647 8.8291 7.9378 0.0000 -10700.8705 1510.9723 0.0000 0.0000 1794.9228 -7372.4438 308.0124 -9167.3666 -7441.7147 301.4969 827.5638 860.1948 30119.2996 224.0279 307.8525
ENERGY: 1500000 2.2353 16.3024 9.7926 0.0000 -10590.9390 1406.9697 0.0000 0.0000 1812.2398 -7343.3991 310.9840 -9155.6389 -7440.7705 300.9057 -155.8217 -57.3517 30091.0267 186.7255 266.1462
TCL: Running FEP window  19: Lambda1 0.09999999999999969 Lambda2 0.049999999999999684 [dLambda -0.05 ]
TCL: Setting parameter firsttimestep to 0
TCL: Setting parameter alchLambda to 0.09999999999999969
Info: NONBONDED TABLE R-SQUARED SPACING: 0.0625
Info: NONBONDED TABLE SIZE: 705 POINTS
TCL: Setting parameter alchLambda2 to 0.049999999999999684
Info: NONBONDED TABLE R-SQUARED SPACING: 0.0625
Info: NONBONDED TABLE SIZE: 705 POINTS
TCL: Running for 1500000 steps
ETITLE: TS BOND ANGLE DIHED IMPRP ELECT VDW BOUNDARY MISC KINETIC TOTAL TEMP POTENTIAL TOTALAVG TEMPAVG PRESSURE GPRESSURE VOLUME PRESSAVG GPRESSAVG
ENERGY: 0 2.2353 16.3024 9.7926 0.0000 -10590.9372 1406.7250 0.0000 0.0000 1811.3911 -7344.4908 310.8383 -9155.8819 -7344.4908 310.8383 -144.2514 -66.4772 30091.0267 -144.2514 -66.4772
ENERGY: 300000 3.8942 6.7894 10.6189 0.0000 -10764.6976 1450.0151 0.0000 0.0000 1758.5977 -7534.7824 301.7789 -9293.3801 -7440.9427 304.5212 81.0986 76.5814 29677.6247 214.3670 248.5560
ENERGY: 600000 5.4109 5.7508 11.8996 0.0000 -10615.3236 1442.3530 0.0000 0.0000 1764.3813 -7385.5279 302.7714 -9149.9093 -7458.0948 302.2077 363.4916 454.6640 30119.7905 -101.4563 -50.9744
ENERGY: 900000 5.1851 12.7278 8.4837 0.0000 -10590.5378 1338.2532 0.0000 0.0000 1717.7557 -7508.1324 294.7703 -9225.8881 -7476.6169 299.2530 -850.3289 -752.5362 29982.1612 -217.1225 -156.8977
ENERGY: 1200000 4.0395 9.2791 11.0651 0.0000 -10644.5573 1380.3092 0.0000 0.0000 1744.6363 -7495.2280 299.3831 -9239.8643 -7470.0582 299.8541 -361.9258 -266.6525 29837.6784 -261.1494 -196.6458
ENERGY: 1500000 5.0961 7.6817 6.8954 0.0000 -10729.7537 1478.3935 0.0000 0.0000 1763.3201 -7468.3670 302.5893 -9231.6871 -7464.4115 300.3890 570.9467 615.0934 29369.4356 -248.7940 -187.0191
TCL: Running FEP window  20: Lambda1 0.049999999999999684 Lambda2 0.0    [dLambda -0.049999999999999684]
TCL: Setting parameter firsttimestep to 0
TCL: Setting parameter alchLambda to 0.049999999999999684
Info: NONBONDED TABLE R-SQUARED SPACING: 0.0625
Info: NONBONDED TABLE SIZE: 705 POINTS
TCL: Setting parameter alchLambda2 to 0.0
Info: NONBONDED TABLE R-SQUARED SPACING: 0.0625
Info: NONBONDED TABLE SIZE: 705 POINTS
TCL: Running for 1500000 steps
ETITLE: TS BOND ANGLE DIHED IMPRP ELECT VDW BOUNDARY MISC KINETIC TOTAL TEMP POTENTIAL TOTALAVG TEMPAVG PRESSURE GPRESSURE VOLUME PRESSAVG GPRESSAVG
ENERGY: 0 5.0961 7.6817 6.8954 0.0000 -10729.7542 1478.4754 0.0000 0.0000 1762.4322 -7469.1735 302.4369 -9231.6057 -7469.1735 302.4369 548.6502 612.9846 29369.4356 548.6502 612.9846
ENERGY: 300000 2.1525 16.0245 10.9418 0.0000 -10677.7655 1492.9476 0.0000 0.0000 1737.4521 -7418.2470 298.1503 -9155.6991 -7449.0582 301.2662 824.3570 845.8631 29787.8738 608.9427 660.2854
ENERGY: 600000 3.2628 16.6548 9.6735 0.0000 -10605.1566 1385.8983 0.0000 0.0000 1740.6115 -7449.0558 298.6924 -9189.6673 -7451.8552 300.7053 -432.3698 -315.4269 30318.7221 624.5551 687.8804
ENERGY: 900000 3.3369 9.8436 9.0180 0.0000 -10688.4071 1382.7679 0.0000 0.0000 1688.5370 -7594.9037 289.7563 -9283.4407 -7489.2800 298.5293 -727.6126 -632.5920 30067.6081 327.1973 386.4266
ENERGY: 1200000 2.3918 8.4779 7.6048 0.0000 -10744.4409 1516.4594 0.0000 0.0000 1737.8904 -7471.6167 298.2255 -9209.5071 -7487.2007 298.1806 720.6978 694.6652 30063.2226 306.7002 350.8846
ENERGY: 1500000 1.4993 11.3527 9.3475 0.0000 -10678.7261 1403.1014 0.0000 0.0000 1728.3348 -7525.0903 296.5857 -9253.4251 -7478.4002 298.6465 -173.7768 -128.3152 29649.2156 265.2299 310.0964
TCL: Exiting due to exit command.
