Info: SIMULATION PARAMETERS:
Info: TIMESTEP               2
Info: NUMBER OF STEPS        0
Info: STEPS PER CYCLE        10
Info: PERIODIC CELL BASIS 1  31.5011 0 0
Info: PERIODIC CELL BASIS 2  0 30.4531 0
Info: PERIODIC CELL BASIS 3  0 0 31.3545
Info: PERIODIC CELL CENTER   0 0 0
Info: WRAPPING WATERS AROUND PERIODIC BOUNDARIES ON OUTPUT.
Info: WRAPPING ALL CLUSTERS AROUND PERIODIC BOUNDARIES ON OUTPUT.
Info: FIRST LDB TIMESTEP     50
Info: LAST LDB TIMESTEP     -1
Info: HOM BACKGROUND SCALING 1
Info: PME BACKGROUND SCALING 1
Info: MIN ATOMS PER PATCH    40
Info: EMPTY PATCH LOAD       40 ATOMS
Info: VELOCITY FILE          mobley_2390199_equil.vel
Info: CENTER OF MASS MOVING INITIALLY? NO
Info: DIELECTRIC             1
Info: EXCLUDE                SCALED ONE-FOUR
Info: 1-4 ELECTROSTATICS SCALED BY 0.833333
Info: MODIFIED 1-4 VDW PARAMETERS WILL BE USED
Info: DCD FILENAME           mobley_2390199_prod.dcd
Info: DCD FREQUENCY          100000
Info: DCD FIRST STEP         100000
Info: DCD FILE WILL CONTAIN UNIT CELL DATA
Info: XST FILENAME           mobley_2390199_prod.xst
Info: XST FREQUENCY          100000
Info: NO VELOCITY DCD OUTPUT
Info: NO FORCE DCD OUTPUT
Info: OUTPUT FILENAME        mobley_2390199_prod
Info: BINARY OUTPUT FILES WILL BE USED
Info: RESTART FILENAME       mobley_2390199_prod.restart
Info: RESTART FREQUENCY      100000
Info: BINARY RESTART FILES WILL BE USED
Info: CUTOFF                 9
Info: PAIRLIST DISTANCE      11
Info: PAIRLIST SHRINK RATE   0.01
Info: PAIRLIST GROW RATE     0.01
Info: PAIRLIST TRIGGER       0.3
Info: PAIRLISTS PER CYCLE    2
Info: PAIRLISTS ENABLED
Info: MARGIN                 2
Info: HYDROGEN GROUP CUTOFF  2.5
Info: PATCH DIMENSION        15.5
Info: ENERGY OUTPUT STEPS    100000
Info: ENERGY EVALUATION STEPS    100000
Info: OUTPUT ENERGY PRECISION 4
Info: CROSSTERM ENERGY INCLUDED IN DIHEDRAL
Info: TIMING OUTPUT STEPS    1000000
Info: PRESSURE OUTPUT STEPS  100000
Info: ALCHEMICAL FEP ON
Info: FEP CURRENT LAMBDA VALUE     1
Info: FEP COMPARISON LAMBDA VALUE  0.95
Info: FEP INTRA-ALCHEMICAL NON-BONDED INTERACTIONS WILL BE RETAINED
Info: FEP INTRA-ALCHEMICAL BONDED INTERACTIONS WILL BE RETAINED
Info: FEP VDW SHIFTING COEFFICIENT 5
Info: FEP ELEC. ACTIVE FOR ANNIHILATED PARTICLES BETWEEN LAMBDA = 0 AND LAMBDA = 0.5
Info: FEP ELEC. ACTIVE FOR EXNIHILATED PARTICLES BETWEEN LAMBDA = 0.5 AND LAMBDA = 1
Info: FEP VDW ACTIVE FOR ANNIHILATED PARTICLES BETWEEN LAMBDA = 0 AND LAMBDA = 1
Info: FEP VDW ACTIVE FOR EXNIHILATED PARTICLES BETWEEN LAMBDA = 0 AND LAMBDA = 1
Info: FEP BOND ACTIVE FOR ANNIHILATED PARTICLES BETWEEN LAMBDA = 1 AND LAMBDA = 1
Info: FEP BOND ACTIVE FOR EXNIHILATED PARTICLES BETWEEN LAMBDA = 0 AND LAMBDA = 0
Info: LANGEVIN DYNAMICS ACTIVE
Info: LANGEVIN TEMPERATURE   300
Info: LANGEVIN USING BBK INTEGRATOR
Info: LANGEVIN DAMPING COEFFICIENT IS 1 INVERSE PS
Info: LANGEVIN DYNAMICS APPLIED TO HYDROGENS
Info: LANGEVIN PISTON PRESSURE CONTROL ACTIVE
Info:        TARGET PRESSURE IS 1.01325 BAR
Info:     OSCILLATION PERIOD IS 50 FS
Info:             DECAY TIME IS 25 FS
Info:     PISTON TEMPERATURE IS 300 K
Info:       PRESSURE CONTROL IS GROUP-BASED
Info:    INITIAL STRAIN RATE IS 0.000639582 0.000639582 0.000639582
Info:       CELL FLUCTUATION IS ISOTROPIC
Info: PARTICLE MESH EWALD (PME) ACTIVE
Info: PME TOLERANCE               1e-06
Info: PME EWALD COEFFICIENT       0.348832
Info: PME INTERPOLATION ORDER     4
Info: PME GRID DIMENSIONS         32 32 32
Info: PME MAXIMUM GRID SPACING    1
Info: PME CALCULATION WILL BE PERFORMED ON GPU
Info: FULL ELECTROSTATIC EVALUATION FREQUENCY      2
Info: USING VERLET I (r-RESPA) MTS SCHEME.
Info: C1 SPLITTING OF LONG RANGE ELECTROSTATICS
Info: PLACING ATOMS IN PATCHES BY HYDROGEN GROUPS
Info: RIGID BONDS TO HYDROGEN : ALL
Info:         ERROR TOLERANCE : 1e-08
Info:          MAX ITERATIONS : 100
Info: RIGID WATER USING SETTLE ALGORITHM
Info: RANDOM NUMBER SEED     1743971717
Info: USE HYDROGEN BONDS?    NO
Info: Using AMBER format force field!
Info: AMBER PARM FILE        mobley_2390199.prmtop
Info: COORDINATE PDB         mobley_2390199.pdb
Info: Exclusions will be read from PARM file!
Info: SCNB (VDW SCALING)     2
Info: USING ARITHMETIC MEAN TO COMBINE L-J SIGMA PARAMETERS
Info: BINARY COORDINATES     mobley_2390199_equil.coor
Info: SUMMARY OF PARAMETERS:
Info: 6 BONDS
Info: 7 ANGLES
Info:   7 HARMONIC
Info:   0 COSINE-BASED
Info: 8 DIHEDRAL
Info: 0 IMPROPER
Info: 0 CROSSTERM
Info: 0 VDW
Info: 21 VDW_PAIRS
Info: 0 NBTHOLE_PAIRS
Info: To read alchdata from file: mobley_2390199.pdb
Info: To read alchflag data from column: 5
Info: STRUCTURE SUMMARY:
Info: 2932 ATOMS
Info: 2931 BONDS
Info: 39 ANGLES
Info: 57 DIHEDRALS
Info: 0 IMPROPERS
Info: 0 CROSSTERMS
Info: 3018 EXCLUSIONS
Info: 2924 RIGID BONDS
Info: ALCH: 0 ATOMS TO DISAPPEAR IN FINAL STATE
Info: ALCH: 22 ATOMS TO APPEAR IN FINAL STATE
Info: 5872 DEGREES OF FREEDOM
Info: 978 HYDROGEN GROUPS
Info: 4 ATOMS IN LARGEST HYDROGEN GROUP
Info: 978 MIGRATION GROUPS
Info: 4 ATOMS IN LARGEST MIGRATION GROUP
Info: TOTAL MASS = 17589.7 amu
Info: TOTAL CHARGE = -0.000399999 e
Info: MASS DENSITY = 0.971096 g/cm^3
Info: ATOM DENSITY = 0.0974784 atoms/A^3
Info: ADDED 0 IMPLICIT EXCLUSIONS
Info: NONBONDED TABLE R-SQUARED SPACING: 0.0625
Info: NONBONDED TABLE SIZE: 705 POINTS
Info: REMOVING COM VELOCITY 0.031997 0.142156 0.0635851
Info: Use 3D box decompostion in PME FFT.
Info: Updated CUDA force table with 4096 elements.
Info: Updated CUDA LJ table with 6 x 6 elements.
Info: Found 23 unique exclusion lists needing 64 bytes
TCL: Running for 1500000 steps
ETITLE: TS BOND ANGLE DIHED IMPRP ELECT VDW BOUNDARY MISC KINETIC TOTAL TEMP POTENTIAL TOTALAVG TEMPAVG PRESSURE GPRESSURE VOLUME PRESSAVG GPRESSAVG
ENERGY: 0 2.3455 8.7192 2.9485 0.0000 -10570.9200 1391.1110 0.0000 0.0000 1770.1934 -7395.6024 303.4066 -9165.7958 -7395.6024 303.4066 -66.0454 14.8756 30078.4550 -66.0454 14.8756
ENERGY: 300000 2.2875 10.1103 3.8343 0.0000 -10568.9405 1424.7089 0.0000 0.0000 1773.6290 -7354.3706 303.9955 -9127.9996 -7399.2999 302.7144 -2.0563 95.6289 30378.8170 -49.1790 48.5052
ENERGY: 600000 4.0273 8.7447 4.1707 0.0000 -10580.1991 1402.0247 0.0000 0.0000 1731.7728 -7429.4588 296.8214 -9161.2316 -7416.6179 300.4507 -32.6996 -21.0680 30118.2595 10.4881 70.0209
ENERGY: 900000 2.8069 13.0677 3.1498 0.0000 -10572.7265 1417.9230 0.0000 0.0000 1775.6947 -7360.0845 304.3495 -9135.7792 -7421.7517 299.7178 -279.5122 -155.0641 30841.7934 -42.8547 30.3273
ENERGY: 1200000 1.6964 8.1824 3.6455 0.0000 -10570.2549 1366.3401 0.0000 0.0000 1726.7807 -7463.6097 295.9658 -9190.3905 -7424.3435 299.4349 -746.3558 -699.0607 30829.5687 -172.7181 -102.9004
ENERGY: 1500000 0.7532 9.4415 4.1414 0.0000 -10672.2319 1435.8935 0.0000 0.0000 1800.3293 -7421.6731 308.5718 -9222.0023 -7436.4049 299.4940 173.1102 228.6640 30143.7787 -130.8656 -63.6495
TCL: Running FEP window   2: Lambda1 0.95   Lambda2 0.8999999999999999 [dLambda -0.050000000000000044]
TCL: Setting parameter firsttimestep to 0
TCL: Setting parameter alchLambda to 0.95
Info: NONBONDED TABLE R-SQUARED SPACING: 0.0625
Info: NONBONDED TABLE SIZE: 705 POINTS
TCL: Setting parameter alchLambda2 to 0.8999999999999999
Info: NONBONDED TABLE R-SQUARED SPACING: 0.0625
Info: NONBONDED TABLE SIZE: 705 POINTS
TCL: Running for 1500000 steps
ETITLE: TS BOND ANGLE DIHED IMPRP ELECT VDW BOUNDARY MISC KINETIC TOTAL TEMP POTENTIAL TOTALAVG TEMPAVG PRESSURE GPRESSURE VOLUME PRESSAVG GPRESSAVG
ENERGY: 0 0.7532 9.4415 4.1414 0.0000 -10670.8175 1435.7107 0.0000 0.0000 1799.4399 -7421.3308 308.4194 -9220.7707 -7421.3308 308.4194 141.4796 213.8572 30143.7787 141.4796 213.8572
ENERGY: 300000 1.3736 13.4466 4.3649 0.0000 -10663.4243 1468.6624 0.0000 0.0000 1707.0356 -7468.5411 292.5815 -9175.5767 -7441.2442 298.3904 251.4130 322.7783 30228.2688 313.7587 362.1962
ENERGY: 600000 2.8035 11.9509 3.5871 0.0000 -10741.3223 1548.2329 0.0000 0.0000 1797.1393 -7377.6087 308.0251 -9174.7480 -7426.5830 299.8377 1205.3789 1263.2795 29836.0869 316.0259 363.2679
ENERGY: 900000 0.7360 12.3845 4.1468 0.0000 -10612.9668 1434.8097 0.0000 0.0000 1699.3842 -7461.5056 291.2701 -9160.8898 -7434.1952 298.7477 185.2228 182.0270 30302.1693 253.2081 294.2696
ENERGY: 1200000 1.8566 12.0866 5.2192 0.0000 -10451.6329 1366.0243 0.0000 0.0000 1743.8803 -7322.5659 298.8966 -9066.4461 -7415.3335 300.0607 -372.6115 -283.1184 30674.8183 151.3916 189.6303
ENERGY: 1500000 5.0188 7.4483 3.7995 0.0000 -10469.0101 1376.7048 0.0000 0.0000 1707.8325 -7368.2062 292.7181 -9076.0388 -7420.4243 298.5884 -227.2881 -188.9819 30254.4916 80.3951 117.8586
TCL: Running FEP window   3: Lambda1 0.8999999999999999 Lambda2 0.8499999999999999 [dLambda -0.050000000000000044]
TCL: Setting parameter firsttimestep to 0
TCL: Setting parameter alchLambda to 0.8999999999999999
Info: NONBONDED TABLE R-SQUARED SPACING: 0.0625
Info: NONBONDED TABLE SIZE: 705 POINTS
TCL: Setting parameter alchLambda2 to 0.8499999999999999
Info: NONBONDED TABLE R-SQUARED SPACING: 0.0625
Info: NONBONDED TABLE SIZE: 705 POINTS
TCL: Running for 1500000 steps
ETITLE: TS BOND ANGLE DIHED IMPRP ELECT VDW BOUNDARY MISC KINETIC TOTAL TEMP POTENTIAL TOTALAVG TEMPAVG PRESSURE GPRESSURE VOLUME PRESSAVG GPRESSAVG
ENERGY: 0 5.0188 7.4483 3.7995 0.0000 -10468.0719 1377.0176 0.0000 0.0000 1706.9441 -7367.8437 292.5658 -9074.7877 -7367.8437 292.5658 -280.0814 -199.9185 30254.4916 -280.0814 -199.9185
ENERGY: 300000 3.0576 7.9029 4.0209 0.0000 -10569.3601 1411.1235 0.0000 0.0000 1781.4746 -7361.7807 305.3402 -9143.2553 -7418.4793 297.2578 202.4078 252.1461 29863.3819 -183.3215 -108.5113
ENERGY: 600000 2.3348 9.8197 2.6941 0.0000 -10462.5142 1349.0416 0.0000 0.0000 1729.7842 -7368.8397 296.4806 -9098.6240 -7426.6114 297.9047 -607.4097 -497.2096 30402.8038 -121.6381 -37.8139
ENERGY: 900000 2.5391 13.5917 4.4655 0.0000 -10421.0025 1269.8387 0.0000 0.0000 1791.1515 -7339.4159 306.9988 -9130.5674 -7417.8054 299.8501 -1114.2764 -1094.9945 30266.4707 -184.1173 -117.1708
ENERGY: 1200000 2.8773 10.3772 5.1002 0.0000 -10631.6257 1521.1498 0.0000 0.0000 1778.5371 -7313.5841 304.8367 -9092.1212 -7411.7832 299.5614 1327.9308 1368.9957 29656.2968 -26.3111 42.0950
ENERGY: 1500000 1.4440 10.1905 5.0068 0.0000 -10558.9349 1398.7627 0.0000 0.0000 1772.9129 -7370.6181 303.8727 -9143.5310 -7407.7822 299.8678 -113.9710 -122.9244 30518.7916 -18.0514 45.7562
TCL: Running FEP window   4: Lambda1 0.8499999999999999 Lambda2 0.7999999999999998 [dLambda -0.050000000000000044]
TCL: Setting parameter firsttimestep to 0
TCL: Setting parameter alchLambda to 0.8499999999999999
Info: NONBONDED TABLE R-SQUARED SPACING: 0.0625
Info: NONBONDED TABLE SIZE: 705 POINTS
TCL: Setting parameter alchLambda2 to 0.7999999999999998
Info: NONBONDED TABLE R-SQUARED SPACING: 0.0625
Info: NONBONDED TABLE SIZE: 705 POINTS
TCL: Running for 1500000 steps
ETITLE: TS BOND ANGLE DIHED IMPRP ELECT VDW BOUNDARY MISC KINETIC TOTAL TEMP POTENTIAL TOTALAVG TEMPAVG PRESSURE GPRESSURE VOLUME PRESSAVG GPRESSAVG
ENERGY: 0 1.4440 10.1905 5.0068 0.0000 -10557.2456 1398.0507 0.0000 0.0000 1772.0226 -7370.5311 303.7201 -9142.5537 -7370.5311 303.7201 -225.7724 -142.3183 30518.7916 -225.7724 -142.3183
ENERGY: 300000 1.2491 12.1188 3.0271 0.0000 -10712.6873 1509.6472 0.0000 0.0000 1727.6912 -7458.9540 296.1219 -9186.6452 -7425.9963 299.7224 592.8359 631.8997 30042.5290 67.5452 116.5208
ENERGY: 600000 2.6317 9.3334 3.3944 0.0000 -10589.2284 1373.8399 0.0000 0.0000 1752.6080 -7447.4209 300.3925 -9200.0288 -7433.9971 301.3733 -270.1113 -243.3932 30050.2307 -14.8982 39.4996
ENERGY: 900000 0.6155 9.6089 3.1874 0.0000 -10518.0058 1363.9159 0.0000 0.0000 1733.1289 -7407.5493 297.0539 -9140.6782 -7426.9891 300.7989 -213.0468 -139.9941 29942.5901 -152.8308 -95.3833
ENERGY: 1200000 2.0955 10.1146 4.8737 0.0000 -10653.1059 1475.5740 0.0000 0.0000 1678.2883 -7482.1599 287.6543 -9160.4482 -7429.8431 300.2382 353.2870 404.3929 30044.9353 -83.5449 -25.9670
ENERGY: 1500000 1.1253 8.1756 3.7859 0.0000 -10588.9823 1391.1559 0.0000 0.0000 1704.3014 -7480.4383 292.1129 -9184.7397 -7423.9459 299.6322 -413.8072 -339.2683 30249.9350 -112.8955 -56.6900
TCL: Running FEP window   5: Lambda1 0.7999999999999998 Lambda2 0.7499999999999998 [dLambda -0.050000000000000044]
TCL: Setting parameter firsttimestep to 0
TCL: Setting parameter alchLambda to 0.7999999999999998
Info: NONBONDED TABLE R-SQUARED SPACING: 0.0625
Info: NONBONDED TABLE SIZE: 705 POINTS
TCL: Setting parameter alchLambda2 to 0.7499999999999998
Info: NONBONDED TABLE R-SQUARED SPACING: 0.0625
Info: NONBONDED TABLE SIZE: 705 POINTS
TCL: Running for 1500000 steps
ETITLE: TS BOND ANGLE DIHED IMPRP ELECT VDW BOUNDARY MISC KINETIC TOTAL TEMP POTENTIAL TOTALAVG TEMPAVG PRESSURE GPRESSURE VOLUME PRESSAVG GPRESSAVG
ENERGY: 0 1.1253 8.1756 3.7859 0.0000 -10587.6760 1391.3236 0.0000 0.0000 1703.4089 -7479.8567 291.9599 -9183.2656 -7479.8567 291.9599 -419.6194 -347.1169 30249.9350 -419.6194 -347.1169
ENERGY: 300000 0.5692 10.7239 5.3307 0.0000 -10565.2334 1435.0485 0.0000 0.0000 1730.1606 -7383.4007 296.5451 -9113.5612 -7420.2290 293.0107 495.5358 484.0076 29803.3428 -32.8481 -0.4613
ENERGY: 600000 2.4743 7.5928 3.7200 0.0000 -10586.3611 1375.0545 0.0000 0.0000 1788.5229 -7408.9966 306.5483 -9197.5196 -7409.6048 297.4030 -281.2600 -199.3916 29850.8930 1.4343 46.6648
ENERGY: 900000 4.1197 6.2594 4.9956 0.0000 -10661.4021 1426.0698 0.0000 0.0000 1779.8175 -7440.1401 305.0562 -9219.9576 -7414.9404 298.9991 -13.7350 64.4001 29901.7109 -49.6545 5.5769
ENERGY: 1200000 2.1678 6.5646 2.9327 0.0000 -10694.3883 1485.1320 0.0000 0.0000 1782.4049 -7415.1862 305.4996 -9197.5912 -7414.7682 299.5100 397.7744 489.5189 29965.6826 -41.8343 17.9071
ENERGY: 1500000 0.8437 9.2994 5.1872 0.0000 -10641.9611 1444.0914 0.0000 0.0000 1770.5685 -7411.9707 303.4709 -9182.5393 -7409.2953 300.8250 128.2300 290.9139 29865.1790 -24.3788 39.0225
TCL: Running FEP window   6: Lambda1 0.7499999999999998 Lambda2 0.6999999999999997 [dLambda -0.050000000000000044]
TCL: Setting parameter firsttimestep to 0
TCL: Setting parameter alchLambda to 0.7499999999999998
Info: NONBONDED TABLE R-SQUARED SPACING: 0.0625
Info: NONBONDED TABLE SIZE: 705 POINTS
TCL: Setting parameter alchLambda2 to 0.6999999999999997
Info: NONBONDED TABLE R-SQUARED SPACING: 0.0625
Info: NONBONDED TABLE SIZE: 705 POINTS
TCL: Running for 1500000 steps
ETITLE: TS BOND ANGLE DIHED IMPRP ELECT VDW BOUNDARY MISC KINETIC TOTAL TEMP POTENTIAL TOTALAVG TEMPAVG PRESSURE GPRESSURE VOLUME PRESSAVG GPRESSAVG
ENERGY: 0 0.8438 9.2994 5.1872 0.0000 -10640.7330 1443.1144 0.0000 0.0000 1769.7086 -7412.5795 303.3235 -9182.2882 -7412.5795 303.3235 171.5498 269.5073 29865.1790 171.5498 269.5073
ENERGY: 300000 1.2657 8.2802 5.0336 0.0000 -10623.6158 1409.1945 0.0000 0.0000 1768.1930 -7431.6489 303.0638 -9199.8419 -7387.6975 303.7440 -199.0844 -122.9354 30192.9767 -228.9530 -153.6584
ENERGY: 600000 1.7500 13.0836 5.7954 0.0000 -10517.1824 1387.2201 0.0000 0.0000 1778.0144 -7331.3188 304.7471 -9109.3332 -7369.6315 303.9568 -8.1663 -1.2799 30275.1013 -213.3092 -131.5537
ENERGY: 900000 3.1689 11.6403 4.8097 0.0000 -10516.5837 1375.6305 0.0000 0.0000 1748.4044 -7372.9299 299.6721 -9121.3344 -7378.8791 301.4834 -82.0357 -45.0215 29979.0191 -222.3735 -145.1931
ENERGY: 1200000 1.3080 8.8885 4.3878 0.0000 -10711.3691 1482.2424 0.0000 0.0000 1775.2698 -7439.2726 304.2767 -9214.5424 -7396.5587 300.9362 495.1461 569.4352 29750.8885 -120.3640 -42.2472
ENERGY: 1500000 6.4291 10.2580 2.7659 0.0000 -10720.3401 1415.2123 0.0000 0.0000 1724.8714 -7560.8034 295.6385 -9285.6747 -7420.7770 299.4091 -506.5505 -377.7669 29828.8352 -120.5624 -44.7387
TCL: Running FEP window   7: Lambda1 0.6999999999999997 Lambda2 0.6499999999999997 [dLambda -0.050000000000000044]
TCL: Setting parameter firsttimestep to 0
TCL: Setting parameter alchLambda to 0.6999999999999997
Info: NONBONDED TABLE R-SQUARED SPACING: 0.0625
Info: NONBONDED TABLE SIZE: 705 POINTS
TCL: Setting parameter alchLambda2 to 0.6499999999999997
Info: NONBONDED TABLE R-SQUARED SPACING: 0.0625
Info: NONBONDED TABLE SIZE: 705 POINTS
TCL: Running for 1500000 steps
ETITLE: TS BOND ANGLE DIHED IMPRP ELECT VDW BOUNDARY MISC KINETIC TOTAL TEMP POTENTIAL TOTALAVG TEMPAVG PRESSURE GPRESSURE VOLUME PRESSAVG GPRESSAVG
ENERGY: 0 6.4291 10.2580 2.7659 0.0000 -10719.2253 1415.1588 0.0000 0.0000 1723.9957 -7560.6178 295.4885 -9284.6135 -7560.6178 295.4885 -489.3650 -388.4897 29828.8352 -489.3650 -388.4897
ENERGY: 300000 1.5934 8.9140 3.0228 0.0000 -10664.4074 1462.6724 0.0000 0.0000 1750.7243 -7437.4805 300.0697 -9188.2048 -7474.1846 296.3590 206.3010 275.3131 29873.2648 24.4967 103.7366
ENERGY: 600000 2.0808 10.2421 3.7307 0.0000 -10670.3687 1412.2863 0.0000 0.0000 1791.7291 -7450.2997 307.0978 -9242.0288 -7434.5138 299.2038 -269.5381 -182.7151 30190.6524 108.0145 194.0261
ENERGY: 900000 3.0478 8.9913 5.7729 0.0000 -10670.2288 1487.5720 0.0000 0.0000 1745.6788 -7419.1659 299.2049 -9164.8447 -7427.5259 299.1485 614.1350 724.3946 29810.3809 109.2462 197.0973
ENERGY: 1200000 2.9291 12.1878 3.7228 0.0000 -10663.0730 1478.6645 0.0000 0.0000 1735.1466 -7430.4222 297.3997 -9165.5689 -7425.7836 299.4738 145.5040 214.4444 30757.8285 70.3574 145.6706
ENERGY: 1500000 1.5266 7.8596 3.7104 0.0000 -10618.2239 1436.3837 0.0000 0.0000 1751.6310 -7417.1126 300.2251 -9168.7436 -7427.7339 299.3639 125.8941 160.7622 30144.1463 58.8202 126.3637
TCL: Running FEP window   8: Lambda1 0.6499999999999997 Lambda2 0.5999999999999996 [dLambda -0.050000000000000044]
TCL: Setting parameter firsttimestep to 0
TCL: Setting parameter alchLambda to 0.6499999999999997
Info: NONBONDED TABLE R-SQUARED SPACING: 0.0625
Info: NONBONDED TABLE SIZE: 705 POINTS
TCL: Setting parameter alchLambda2 to 0.5999999999999996
Info: NONBONDED TABLE R-SQUARED SPACING: 0.0625
Info: NONBONDED TABLE SIZE: 705 POINTS
TCL: Running for 1500000 steps
ETITLE: TS BOND ANGLE DIHED IMPRP ELECT VDW BOUNDARY MISC KINETIC TOTAL TEMP POTENTIAL TOTALAVG TEMPAVG PRESSURE GPRESSURE VOLUME PRESSAVG GPRESSAVG
ENERGY: 0 1.5266 7.8596 3.7104 0.0000 -10618.1882 1436.5731 0.0000 0.0000 1750.7714 -7417.7471 300.0777 -9168.5184 -7417.7471 300.0777 71.7096 148.7493 30144.1463 71.7096 148.7493
ENERGY: 300000 3.2320 7.2404 5.4938 0.0000 -10590.3421 1411.5574 0.0000 0.0000 1749.9856 -7412.8329 299.9431 -9162.8185 -7391.4533 302.1738 128.0208 219.9055 29672.4917 211.5209 307.2246
ENERGY: 600000 0.5865 7.0774 5.7986 0.0000 -10539.4999 1333.2126 0.0000 0.0000 1777.9172 -7414.9076 304.7305 -9192.8248 -7423.4567 301.0063 -661.1391 -596.1179 29869.0109 166.5917 258.9196
ENERGY: 900000 1.9674 6.2108 3.1989 0.0000 -10539.3105 1413.7865 0.0000 0.0000 1750.9236 -7363.2232 300.1038 -9114.1469 -7420.1624 301.4521 -141.4238 -29.2981 30618.7183 104.4490 202.7290
ENERGY: 1200000 1.7406 16.4320 3.5957 0.0000 -10560.6925 1381.3091 0.0000 0.0000 1739.0448 -7418.5703 298.0678 -9157.6151 -7433.9099 300.7308 -286.5240 -250.0286 30142.5516 13.1935 99.5600
ENERGY: 1500000 1.0899 13.6460 2.3982 0.0000 -10640.7546 1461.2465 0.0000 0.0000 1774.4412 -7387.9328 304.1347 -9162.3740 -7424.7564 301.2304 500.1861 554.9336 29883.9490 -15.7781 65.9864
TCL: Running FEP window   9: Lambda1 0.5999999999999996 Lambda2 0.5499999999999996 [dLambda -0.050000000000000044]
TCL: Setting parameter firsttimestep to 0
TCL: Setting parameter alchLambda to 0.5999999999999996
Info: NONBONDED TABLE R-SQUARED SPACING: 0.0625
Info: NONBONDED TABLE SIZE: 705 POINTS
TCL: Setting parameter alchLambda2 to 0.5499999999999996
Info: NONBONDED TABLE R-SQUARED SPACING: 0.0625
Info: NONBONDED TABLE SIZE: 705 POINTS
TCL: Running for 1500000 steps
ETITLE: TS BOND ANGLE DIHED IMPRP ELECT VDW BOUNDARY MISC KINETIC TOTAL TEMP POTENTIAL TOTALAVG TEMPAVG PRESSURE GPRESSURE VOLUME PRESSAVG GPRESSAVG
ENERGY: 0 1.0899 13.6460 2.3982 0.0000 -10640.5024 1460.5675 0.0000 0.0000 1773.5613 -7389.2395 303.9839 -9162.8008 -7389.2395 303.9839 456.7499 534.5581 29883.9490 456.7499 534.5581
ENERGY: 300000 2.1223 14.2405 5.5243 0.0000 -10481.5318 1335.2689 0.0000 0.0000 1761.1770 -7363.1988 301.8612 -9124.3758 -7388.6318 302.6354 -779.7535 -775.0083 30609.0666 -288.3012 -268.8807
ENERGY: 600000 0.9112 8.3821 6.1778 0.0000 -10669.8512 1440.6741 0.0000 0.0000 1816.9426 -7396.7634 311.4193 -9213.7060 -7380.4804 303.9027 183.7966 275.8952 29537.7695 -103.2972 -53.5069
ENERGY: 900000 2.8532 5.7733 3.1323 0.0000 -10463.6281 1366.3798 0.0000 0.0000 1705.8643 -7379.6251 292.3808 -9085.4895 -7388.3077 302.0540 -630.3940 -522.9202 30678.9541 -54.9232 9.6570
ENERGY: 1200000 1.9834 15.6410 4.1841 0.0000 -10622.5498 1458.8815 0.0000 0.0000 1755.3804 -7386.4794 300.8677 -9141.8598 -7392.8735 301.2740 335.5673 399.4760 30267.1138 -53.1765 4.9432
ENERGY: 1500000 2.3517 15.1642 5.0110 0.0000 -10657.6703 1456.9496 0.0000 0.0000 1731.0550 -7447.1388 296.6984 -9178.1938 -7403.1301 300.3465 6.2131 69.3085 30343.2734 -108.7528 -50.4633
TCL: Running FEP window  10: Lambda1 0.5499999999999996 Lambda2 0.4999999999999996 [dLambda -0.04999999999999999]
TCL: Setting parameter firsttimestep to 0
TCL: Setting parameter alchLambda to 0.5499999999999996
Info: NONBONDED TABLE R-SQUARED SPACING: 0.0625
Info: NONBONDED TABLE SIZE: 705 POINTS
TCL: Setting parameter alchLambda2 to 0.4999999999999996
Info: NONBONDED TABLE R-SQUARED SPACING: 0.0625
Info: NONBONDED TABLE SIZE: 705 POINTS
TCL: Running for 1500000 steps
ETITLE: TS BOND ANGLE DIHED IMPRP ELECT VDW BOUNDARY MISC KINETIC TOTAL TEMP POTENTIAL TOTALAVG TEMPAVG PRESSURE GPRESSURE VOLUME PRESSAVG GPRESSAVG
ENERGY: 0 2.3517 15.1642 5.0110 0.0000 -10657.6007 1456.6810 0.0000 0.0000 1730.1562 -7448.2366 296.5443 -9178.3928 -7448.2366 296.5443 -9.4884 57.3843 30343.2734 -9.4884 57.3843
ENERGY: 300000 1.7332 6.9362 5.3957 0.0000 -10629.0426 1461.5170 0.0000 0.0000 1802.7397 -7350.7208 308.9850 -9153.4605 -7449.3312 298.8475 370.4978 426.4204 29963.5018 -46.0697 31.2968
ENERGY: 600000 0.4092 10.9910 5.0461 0.0000 -10547.8349 1417.3152 0.0000 0.0000 1720.0629 -7394.0105 294.8144 -9114.0734 -7432.0772 297.7999 -15.5049 62.4606 30212.5980 -200.6415 -130.3469
ENERGY: 900000 3.7187 7.7823 5.3359 0.0000 -10550.0472 1376.9349 0.0000 0.0000 1763.9125 -7392.3629 302.3301 -9156.2754 -7427.3102 298.0375 -515.8495 -481.4746 30507.5997 -208.2647 -145.0433
ENERGY: 1200000 4.6649 8.7394 2.8996 0.0000 -10572.1331 1396.6114 0.0000 0.0000 1714.2129 -7445.0050 293.8117 -9159.2179 -7425.4294 298.0953 -226.3286 -173.0072 29949.5993 -171.4983 -102.9924
ENERGY: 1500000 0.7955 9.8905 3.7315 0.0000 -10748.0542 1476.6922 0.0000 0.0000 1774.4123 -7482.5322 304.1297 -9256.9445 -7425.0545 298.8883 456.2344 512.9381 29507.9073 -114.9798 -48.5464
TCL: Running FEP window  11: Lambda1 0.4999999999999996 Lambda2 0.4499999999999996 [dLambda -0.04999999999999999]
TCL: Setting parameter firsttimestep to 0
TCL: Setting parameter alchLambda to 0.4999999999999996
Info: NONBONDED TABLE R-SQUARED SPACING: 0.0625
Info: NONBONDED TABLE SIZE: 705 POINTS
TCL: Setting parameter alchLambda2 to 0.4499999999999996
Info: NONBONDED TABLE R-SQUARED SPACING: 0.0625
Info: NONBONDED TABLE SIZE: 705 POINTS
TCL: Running for 1500000 steps
ETITLE: TS BOND ANGLE DIHED IMPRP ELECT VDW BOUNDARY MISC KINETIC TOTAL TEMP POTENTIAL TOTALAVG TEMPAVG PRESSURE GPRESSURE VOLUME PRESSAVG GPRESSAVG
ENERGY: 0 0.7955 9.8905 3.7315 0.0000 -10748.2095 1476.2882 0.0000 0.0000 1773.4880 -7484.0160 303.9713 -9257.5039 -7484.0160 303.9713 423.9773 496.9954 29507.9073 423.9773 496.9954
ENERGY: 300000 3.2540 11.7472 5.3320 0.0000 -10604.7957 1448.1526 0.0000 0.0000 1746.8697 -7389.4402 299.4090 -9136.3099 -7377.8401 302.6608 149.1961 196.6072 30189.4666 -50.6865 -3.2799
ENERGY: 600000 0.7161 10.4699 4.1272 0.0000 -10583.9404 1430.2514 0.0000 0.0000 1733.4776 -7404.8982 297.1136 -9138.3758 -7393.9823 300.4162 247.7592 328.6315 29905.4072 -24.3055 26.7164
ENERGY: 900000 3.5096 9.6871 4.8000 0.0000 -10703.7398 1498.6319 0.0000 0.0000 1747.3185 -7439.7928 299.4859 -9187.1112 -7419.8679 299.9845 501.8557 566.2835 29973.8484 19.2869 77.5105
ENERGY: 1200000 3.7528 5.1053 3.4022 0.0000 -10617.0385 1443.3860 0.0000 0.0000 1712.5658 -7448.8264 293.5294 -9161.3922 -7423.1967 299.9921 25.0216 41.0116 30222.3054 51.7659 103.5181
ENERGY: 1500000 4.3212 11.3863 6.3397 0.0000 -10545.3181 1386.9798 0.0000 0.0000 1700.1390 -7436.1521 291.3995 -9136.2911 -7429.8707 299.4350 -483.4731 -466.9779 30438.3674 -18.0511 30.9744
TCL: Running FEP window  12: Lambda1 0.4499999999999996 Lambda2 0.39999999999999963 [dLambda -0.04999999999999999]
TCL: Setting parameter firsttimestep to 0
TCL: Setting parameter alchLambda to 0.4499999999999996
Info: NONBONDED TABLE R-SQUARED SPACING: 0.0625
Info: NONBONDED TABLE SIZE: 705 POINTS
TCL: Setting parameter alchLambda2 to 0.39999999999999963
Info: NONBONDED TABLE R-SQUARED SPACING: 0.0625
Info: NONBONDED TABLE SIZE: 705 POINTS
TCL: Running for 1500000 steps
ETITLE: TS BOND ANGLE DIHED IMPRP ELECT VDW BOUNDARY MISC KINETIC TOTAL TEMP POTENTIAL TOTALAVG TEMPAVG PRESSURE GPRESSURE VOLUME PRESSAVG GPRESSAVG
ENERGY: 0 4.3212 11.3863 6.3397 0.0000 -10545.3172 1387.0174 0.0000 0.0000 1699.3108 -7436.9418 291.2575 -9136.2526 -7436.9418 291.2575 -562.2153 -473.1719 30438.3674 -562.2153 -473.1719
ENERGY: 300000 0.7648 10.9007 3.4759 0.0000 -10569.8890 1406.3226 0.0000 0.0000 1764.9452 -7383.4798 302.5071 -9148.4250 -7423.5741 297.9261 -121.4236 -49.0862 30103.9405 -197.9660 -121.6505
ENERGY: 600000 1.4451 5.9562 4.7277 0.0000 -10604.1168 1417.3365 0.0000 0.0000 1780.1722 -7394.4791 305.1170 -9174.6513 -7406.2694 299.3184 2.3430 2.8754 30088.8504 -148.6654 -96.1709
ENERGY: 900000 1.3960 11.2787 3.0375 0.0000 -10704.2936 1495.0950 0.0000 0.0000 1746.2390 -7447.2475 299.3009 -9193.4865 -7403.9894 300.0892 600.5347 666.4628 29642.8342 -106.1832 -53.5302
ENERGY: 1200000 3.4144 8.4264 4.7482 0.0000 -10675.4332 1472.6607 0.0000 0.0000 1793.0193 -7393.1642 307.3189 -9186.1835 -7396.7599 300.7961 396.8748 448.5304 29744.3877 -41.6826 16.1637
ENERGY: 1500000 1.0916 10.0948 6.2757 0.0000 -10467.2163 1304.3745 0.0000 0.0000 1736.4339 -7408.9458 297.6203 -9145.3798 -7399.0633 300.2087 -1048.8387 -979.4080 30503.1103 -106.2855 -48.4946
TCL: Running FEP window  13: Lambda1 0.39999999999999963 Lambda2 0.34999999999999964 [dLambda -0.04999999999999999]
TCL: Setting parameter firsttimestep to 0
TCL: Setting parameter alchLambda to 0.39999999999999963
Info: NONBONDED TABLE R-SQUARED SPACING: 0.0625
Info: NONBONDED TABLE SIZE: 705 POINTS
TCL: Setting parameter alchLambda2 to 0.34999999999999964
Info: NONBONDED TABLE R-SQUARED SPACING: 0.0625
Info: NONBONDED TABLE SIZE: 705 POINTS
TCL: Running for 1500000 steps
ETITLE: TS BOND ANGLE DIHED IMPRP ELECT VDW BOUNDARY MISC KINETIC TOTAL TEMP POTENTIAL TOTALAVG TEMPAVG PRESSURE GPRESSURE VOLUME PRESSAVG GPRESSAVG
ENERGY: 0 1.0916 10.0948 6.2757 0.0000 -10467.2172 1304.7398 0.0000 0.0000 1735.5437 -7409.4716 297.4678 -9145.0153 -7409.4716 297.4678 -1076.7455 -980.6000 30503.1103 -1076.7455 -980.6000
ENERGY: 300000 1.8585 11.3473 4.0430 0.0000 -10426.5577 1343.3596 0.0000 0.0000 1780.1267 -7285.8224 305.1092 -9065.9491 -7402.3613 299.7934 -446.6194 -401.9138 30663.2100 -356.4871 -302.4671
ENERGY: 600000 3.7965 7.3809 4.8149 0.0000 -10594.4056 1471.1749 0.0000 0.0000 1763.3106 -7343.9277 302.2269 -9107.2383 -7383.5932 301.0387 93.9485 224.3318 30596.5944 -166.3631 -107.5784
ENERGY: 900000 4.6361 6.7743 3.1195 0.0000 -10768.9216 1521.2041 0.0000 0.0000 1759.8795 -7473.3080 301.6388 -9233.1875 -7380.8946 302.1236 826.3458 793.3893 29502.7736 23.9718 76.2084
ENERGY: 1200000 6.2264 9.1035 2.2743 0.0000 -10614.7701 1424.7341 0.0000 0.0000 1776.6016 -7395.8302 304.5050 -9172.4318 -7381.1494 302.3414 -128.5617 -144.2212 29830.1829 104.7102 153.5001
ENERGY: 1500000 2.2576 7.4969 5.3742 0.0000 -10680.6233 1440.2595 0.0000 0.0000 1775.1178 -7450.1173 304.2507 -9225.2351 -7385.7444 302.2385 -30.8703 -5.0207 29897.2740 85.9135 134.8756
TCL: Running FEP window  14: Lambda1 0.34999999999999964 Lambda2 0.29999999999999966 [dLambda -0.04999999999999999]
TCL: Setting parameter firsttimestep to 0
TCL: Setting parameter alchLambda to 0.34999999999999964
Info: NONBONDED TABLE R-SQUARED SPACING: 0.0625
Info: NONBONDED TABLE SIZE: 705 POINTS
TCL: Setting parameter alchLambda2 to 0.29999999999999966
Info: NONBONDED TABLE R-SQUARED SPACING: 0.0625
Info: NONBONDED TABLE SIZE: 705 POINTS
TCL: Running for 1500000 steps
ETITLE: TS BOND ANGLE DIHED IMPRP ELECT VDW BOUNDARY MISC KINETIC TOTAL TEMP POTENTIAL TOTALAVG TEMPAVG PRESSURE GPRESSURE VOLUME PRESSAVG GPRESSAVG
ENERGY: 0 2.2576 7.4969 5.3742 0.0000 -10680.6240 1440.7658 0.0000 0.0000 1774.2336 -7450.4958 304.0991 -9224.7294 -7450.4958 304.0991 -91.3057 -7.7571 29897.2740 -91.3057 -7.7571
ENERGY: 300000 1.3800 8.4854 2.8841 0.0000 -10491.2995 1320.4246 0.0000 0.0000 1711.8036 -7446.3218 293.3988 -9158.1254 -7478.8821 299.2968 -1030.9655 -926.9432 30442.2348 -188.2359 -114.3167
ENERGY: 600000 1.1750 11.3659 2.3966 0.0000 -10612.3511 1450.6915 0.0000 0.0000 1811.3409 -7335.3812 310.4592 -9146.7221 -7432.6607 302.2785 172.8622 161.1202 30204.4619 -92.6738 -42.1001
ENERGY: 900000 3.0076 9.1647 2.4022 0.0000 -10567.8276 1365.7013 0.0000 0.0000 1733.4611 -7454.0907 297.1108 -9187.5518 -7434.9096 300.2379 -528.0759 -456.5856 29934.6274 -172.3635 -120.9526
ENERGY: 1200000 3.1195 8.7098 4.5728 0.0000 -10721.8194 1488.7282 0.0000 0.0000 1710.1363 -7506.5528 293.1130 -9216.6891 -7422.6117 300.3567 352.7889 395.0347 29744.5081 -143.0817 -86.0913
ENERGY: 1500000 2.7449 11.0500 4.7367 0.0000 -10693.8863 1498.1336 0.0000 0.0000 1750.6375 -7426.5837 300.0548 -9177.2211 -7421.6055 300.5643 641.6146 686.9999 29572.9952 -86.0656 -29.4058
TCL: Running FEP window  15: Lambda1 0.29999999999999966 Lambda2 0.24999999999999967 [dLambda -0.04999999999999999]
TCL: Setting parameter firsttimestep to 0
TCL: Setting parameter alchLambda to 0.29999999999999966
Info: NONBONDED TABLE R-SQUARED SPACING: 0.0625
Info: NONBONDED TABLE SIZE: 705 POINTS
TCL: Setting parameter alchLambda2 to 0.24999999999999967
Info: NONBONDED TABLE R-SQUARED SPACING: 0.0625
Info: NONBONDED TABLE SIZE: 705 POINTS
TCL: Running for 1500000 steps
ETITLE: TS BOND ANGLE DIHED IMPRP ELECT VDW BOUNDARY MISC KINETIC TOTAL TEMP POTENTIAL TOTALAVG TEMPAVG PRESSURE GPRESSURE VOLUME PRESSAVG GPRESSAVG
ENERGY: 0 2.7449 11.0500 4.7367 0.0000 -10693.8871 1497.8630 0.0000 0.0000 1749.7503 -7427.7421 299.9027 -9177.4924 -7427.7421 299.9027 610.5444 677.8593 29572.9952 610.5444 677.8593
ENERGY: 300000 1.9663 10.1154 4.7203 0.0000 -10693.9981 1509.4207 0.0000 0.0000 1710.1342 -7457.6412 293.1126 -9167.7753 -7403.6043 298.4942 687.4833 735.4896 30147.2112 135.7401 192.0177
ENERGY: 600000 0.7024 9.1658 5.7260 0.0000 -10351.6197 1270.3090 0.0000 0.0000 1756.3092 -7309.4075 301.0269 -9065.7167 -7372.1966 300.3438 -971.2162 -869.2674 30022.7896 -94.5224 -40.9080
ENERGY: 900000 3.3471 9.5014 4.1950 0.0000 -10613.1595 1428.9101 0.0000 0.0000 1810.8278 -7356.3781 310.3712 -9167.2059 -7383.9179 300.8394 197.1817 251.6584 29730.5793 7.0013 60.8593
ENERGY: 1200000 1.0802 7.7810 3.9271 0.0000 -10506.0547 1333.7250 0.0000 0.0000 1731.4223 -7428.1191 296.7614 -9159.5414 -7393.0313 301.3259 -797.2463 -696.7940 30259.3243 -84.1444 -20.9030
ENERGY: 1500000 8.7407 13.5778 5.7727 0.0000 -10699.4454 1516.7973 0.0000 0.0000 1683.0654 -7471.4913 288.4731 -9154.5568 -7399.8527 300.5407 796.2166 870.0233 29650.4868 -53.7818 11.4107
TCL: Running FEP window  16: Lambda1 0.24999999999999967 Lambda2 0.19999999999999968 [dLambda -0.04999999999999999]
TCL: Setting parameter firsttimestep to 0
TCL: Setting parameter alchLambda to 0.24999999999999967
Info: NONBONDED TABLE R-SQUARED SPACING: 0.0625
Info: NONBONDED TABLE SIZE: 705 POINTS
TCL: Setting parameter alchLambda2 to 0.19999999999999968
Info: NONBONDED TABLE R-SQUARED SPACING: 0.0625
Info: NONBONDED TABLE SIZE: 705 POINTS
TCL: Running for 1500000 steps
ETITLE: TS BOND ANGLE DIHED IMPRP ELECT VDW BOUNDARY MISC KINETIC TOTAL TEMP POTENTIAL TOTALAVG TEMPAVG PRESSURE GPRESSURE VOLUME PRESSAVG GPRESSAVG
ENERGY: 0 8.7407 13.5778 5.7727 0.0000 -10699.4444 1517.3380 0.0000 0.0000 1682.1975 -7471.8176 288.3244 -9154.0151 -7471.8176 288.3244 778.4392 868.2086 29650.4868 778.4392 868.2086
ENERGY: 300000 5.3113 12.3978 4.2312 0.0000 -10553.2511 1406.4716 0.0000 0.0000 1797.6152 -7327.2241 308.1066 -9124.8392 -7421.3482 297.5449 -310.7538 -172.0496 30225.2460 96.7472 177.8015
ENERGY: 600000 1.4423 6.6432 2.9968 0.0000 -10637.0827 1435.9785 0.0000 0.0000 1773.2570 -7416.7649 303.9317 -9190.0219 -7419.7655 298.9922 -94.1042 -67.1034 30134.2004 -110.6406 -37.6810
ENERGY: 900000 1.2761 9.2012 3.6406 0.0000 -10672.4676 1541.9268 0.0000 0.0000 1757.5133 -7358.9096 301.2333 -9116.4229 -7407.9560 299.7647 958.4441 1072.2730 29848.6929 -23.0429 52.7421
ENERGY: 1200000 1.2057 5.1549 5.6310 0.0000 -10468.5596 1366.5616 0.0000 0.0000 1794.0534 -7295.9530 307.4962 -9090.0064 -7397.0630 300.8958 -402.5355 -356.2016 30400.3735 -32.5322 33.0218
ENERGY: 1500000 2.5766 9.4727 3.8424 0.0000 -10464.1584 1364.6408 0.0000 0.0000 1752.6829 -7330.9430 300.4054 -9083.6259 -7399.9176 301.0542 -395.0534 -267.6912 30184.6390 -28.0778 41.9513
TCL: Running FEP window  17: Lambda1 0.19999999999999968 Lambda2 0.1499999999999997 [dLambda -0.04999999999999999]
TCL: Setting parameter firsttimestep to 0
TCL: Setting parameter alchLambda to 0.19999999999999968
Info: NONBONDED TABLE R-SQUARED SPACING: 0.0625
Info: NONBONDED TABLE SIZE: 705 POINTS
TCL: Setting parameter alchLambda2 to 0.1499999999999997
Info: NONBONDED TABLE R-SQUARED SPACING: 0.0625
Info: NONBONDED TABLE SIZE: 705 POINTS
TCL: Running for 1500000 steps
ETITLE: TS BOND ANGLE DIHED IMPRP ELECT VDW BOUNDARY MISC KINETIC TOTAL TEMP POTENTIAL TOTALAVG TEMPAVG PRESSURE GPRESSURE VOLUME PRESSAVG GPRESSAVG
ENERGY: 0 2.5766 9.4727 3.8424 0.0000 -10464.1587 1364.7405 0.0000 0.0000 1751.8031 -7331.7234 300.2546 -9083.5264 -7331.7234 300.2546 -359.1031 -271.5320 30184.6390 -359.1031 -271.5320
ENERGY: 300000 0.9972 14.0318 6.1890 0.0000 -10585.2280 1410.6009 0.0000 0.0000 1761.9511 -7391.4580 301.9939 -9153.4091 -7357.4280 303.5479 -252.1328 -195.2628 30320.2079 -190.4016 -143.3086
ENERGY: 600000 3.2765 11.2851 4.7667 0.0000 -10412.0519 1315.2077 0.0000 0.0000 1776.3542 -7301.1617 304.4626 -9077.5159 -7349.9851 302.8954 -645.5217 -555.0351 29852.6535 -193.5181 -139.9150
ENERGY: 900000 2.8476 7.8522 3.1677 0.0000 -10612.0422 1407.8160 0.0000 0.0000 1726.6525 -7463.7062 295.9438 -9190.3587 -7375.0789 301.0194 -359.1417 -232.6589 29765.8699 -149.2607 -93.6110
ENERGY: 1200000 1.5072 7.1641 3.4049 0.0000 -10530.7248 1402.8965 0.0000 0.0000 1725.6473 -7390.1048 295.7715 -9115.7521 -7369.0599 300.9694 -307.4963 -220.0213 30419.5728 -150.4896 -83.6637
ENERGY: 1500000 2.5266 11.0390 3.5798 0.0000 -10625.6462 1494.0468 0.0000 0.0000 1758.7815 -7355.6724 301.4507 -9114.4539 -7376.0484 301.3585 662.0782 682.2292 29910.4655 -70.6517 -5.2240
TCL: Running FEP window  18: Lambda1 0.1499999999999997 Lambda2 0.09999999999999969 [dLambda -0.05 ]
TCL: Setting parameter firsttimestep to 0
TCL: Setting parameter alchLambda to 0.1499999999999997
Info: NONBONDED TABLE R-SQUARED SPACING: 0.0625
Info: NONBONDED TABLE SIZE: 705 POINTS
TCL: Setting parameter alchLambda2 to 0.09999999999999969
Info: NONBONDED TABLE R-SQUARED SPACING: 0.0625
Info: NONBONDED TABLE SIZE: 705 POINTS
TCL: Running for 1500000 steps
ETITLE: TS BOND ANGLE DIHED IMPRP ELECT VDW BOUNDARY MISC KINETIC TOTAL TEMP POTENTIAL TOTALAVG TEMPAVG PRESSURE GPRESSURE VOLUME PRESSAVG GPRESSAVG
ENERGY: 0 2.5266 11.0390 3.5798 0.0000 -10625.6465 1494.5840 0.0000 0.0000 1757.9017 -7356.0153 301.2999 -9113.9171 -7356.0153 301.2999 598.3685 682.9808 29910.4655 598.3685 682.9808
ENERGY: 300000 2.7005 8.8505 4.0600 0.0000 -10632.9824 1461.0684 0.0000 0.0000 1754.9083 -7401.3946 300.7868 -9156.3029 -7411.2113 300.3327 166.8108 129.6828 30201.6121 -13.6646 51.6144
ENERGY: 600000 1.7525 9.6709 3.8967 0.0000 -10805.1596 1542.9558 0.0000 0.0000 1746.3603 -7500.5235 299.3217 -9246.8838 -7435.9178 299.1198 543.1218 572.5238 30075.2323 117.1984 179.9719
ENERGY: 900000 1.9921 6.0493 4.3985 0.0000 -10548.1484 1402.4223 0.0000 0.0000 1740.9167 -7392.3694 298.3887 -9133.2861 -7435.7277 298.6219 71.6042 155.7272 29743.5293 -11.3159 55.7108
ENERGY: 1200000 3.0559 13.6557 3.2007 0.0000 -10792.9354 1489.0815 0.0000 0.0000 1743.8148 -7540.1268 298.8854 -9283.9416 -7442.8259 299.2979 -8.9354 92.6123 29710.0777 -10.6101 59.6210
ENERGY: 1500000 0.8904 7.9554 4.9192 0.0000 -10683.9965 1490.7031 0.0000 0.0000 1747.1179 -7432.4105 299.4515 -9179.5284 -7434.8849 299.8435 441.7583 489.8854 30128.1000 10.2562 80.5758
TCL: Running FEP window  19: Lambda1 0.09999999999999969 Lambda2 0.049999999999999684 [dLambda -0.05 ]
TCL: Setting parameter firsttimestep to 0
TCL: Setting parameter alchLambda to 0.09999999999999969
Info: NONBONDED TABLE R-SQUARED SPACING: 0.0625
Info: NONBONDED TABLE SIZE: 705 POINTS
TCL: Setting parameter alchLambda2 to 0.049999999999999684
Info: NONBONDED TABLE R-SQUARED SPACING: 0.0625
Info: NONBONDED TABLE SIZE: 705 POINTS
TCL: Running for 1500000 steps
ETITLE: TS BOND ANGLE DIHED IMPRP ELECT VDW BOUNDARY MISC KINETIC TOTAL TEMP POTENTIAL TOTALAVG TEMPAVG PRESSURE GPRESSURE VOLUME PRESSAVG GPRESSAVG
ENERGY: 0 0.8904 7.9554 4.9192 0.0000 -10683.9962 1491.3215 0.0000 0.0000 1746.2645 -7432.6452 299.3053 -9178.9097 -7432.6452 299.3053 414.7951 489.0400 30128.1000 414.7951 489.0400
ENERGY: 300000 2.8423 13.1467 4.8643 0.0000 -10724.9651 1456.1368 0.0000 0.0000 1786.3797 -7461.5953 306.1809 -9247.9750 -7462.2998 299.2183 334.3988 375.3817 29695.3956 -16.2668 43.7953
ENERGY: 600000 1.5907 8.9045 5.1478 0.0000 -10639.4390 1441.2069 0.0000 0.0000 1789.9933 -7392.5958 306.8003 -9182.5891 -7437.6128 300.4585 -275.8918 -238.8153 30409.3742 -33.6095 24.5369
ENERGY: 900000 4.1707 10.4544 3.1270 0.0000 -10688.5081 1466.3227 0.0000 0.0000 1817.3411 -7387.0922 311.4876 -9204.4333 -7427.5621 300.9500 105.5278 163.0007 30005.2999 15.7790 71.3875
ENERGY: 1200000 5.2082 13.1096 2.6873 0.0000 -10577.6726 1410.7810 0.0000 0.0000 1722.7948 -7423.0917 295.2826 -9145.8865 -7412.8868 300.9383 -506.7336 -430.9939 30640.4592 -62.5677 -0.8755
ENERGY: 1500000 1.3732 10.7888 4.5829 0.0000 -10565.2419 1408.4982 0.0000 0.0000 1766.1564 -7373.8424 302.7147 -9139.9988 -7401.4512 301.9439 -19.5371 33.3655 29778.1520 21.4841 81.0378
TCL: Running FEP window  20: Lambda1 0.049999999999999684 Lambda2 0.0    [dLambda -0.049999999999999684]
TCL: Setting parameter firsttimestep to 0
TCL: Setting parameter alchLambda to 0.049999999999999684
Info: NONBONDED TABLE R-SQUARED SPACING: 0.0625
Info: NONBONDED TABLE SIZE: 705 POINTS
TCL: Setting parameter alchLambda2 to 0.0
Info: NONBONDED TABLE R-SQUARED SPACING: 0.0625
Info: NONBONDED TABLE SIZE: 705 POINTS
TCL: Running for 1500000 steps
ETITLE: TS BOND ANGLE DIHED IMPRP ELECT VDW BOUNDARY MISC KINETIC TOTAL TEMP POTENTIAL TOTALAVG TEMPAVG PRESSURE GPRESSURE VOLUME PRESSAVG GPRESSAVG
ENERGY: 0 1.3732 10.7888 4.5829 0.0000 -10565.2388 1407.8116 0.0000 0.0000 1765.2884 -7375.3939 302.5659 -9140.6823 -7375.3939 302.5659 -69.8856 26.8360 29778.1520 -69.8856 26.8360
ENERGY: 300000 1.5401 12.9138 4.1034 0.0000 -10563.6316 1440.5564 0.0000 0.0000 1786.3697 -7318.1482 306.1792 -9104.5179 -7342.4060 301.4046 208.1627 259.0512 29958.5214 127.3663 168.0881
ENERGY: 600000 1.5955 9.5151 4.1873 0.0000 -10700.4569 1496.6292 0.0000 0.0000 1726.5650 -7461.9648 295.9288 -9188.5298 -7361.4246 301.1940 499.0983 629.8028 29605.5816 195.2011 254.5597
ENERGY: 900000 1.7801 11.1827 3.2550 0.0000 -10462.4022 1313.2312 0.0000 0.0000 1746.4246 -7386.5286 299.3327 -9132.9533 -7347.9999 301.2812 -929.0298 -837.5988 29974.5684 5.7666 64.8960
ENERGY: 1200000 1.1258 11.7130 3.2405 0.0000 -10623.0499 1437.9977 0.0000 0.0000 1705.7233 -7463.2496 292.3566 -9168.9729 -7366.7859 300.2037 168.1974 252.9707 29574.4234 36.8669 97.1952
ENERGY: 1500000 1.8133 10.1142 5.0944 0.0000 -10623.7749 1416.4731 0.0000 0.0000 1703.7514 -7486.5285 292.0186 -9190.2799 -7376.4370 300.4008 -205.0490 -121.5579 29695.5372 -12.0820 56.2527
TCL: Exiting due to exit command.
