Info: SIMULATION PARAMETERS:
Info: TIMESTEP               2
Info: NUMBER OF STEPS        0
Info: STEPS PER CYCLE        10
Info: PERIODIC CELL BASIS 1  27.8754 0 0
Info: PERIODIC CELL BASIS 2  0 31.4553 0
Info: PERIODIC CELL BASIS 3  0 0 34.5253
Info: PERIODIC CELL CENTER   0 0 0
Info: WRAPPING WATERS AROUND PERIODIC BOUNDARIES ON OUTPUT.
Info: WRAPPING ALL CLUSTERS AROUND PERIODIC BOUNDARIES ON OUTPUT.
Info: FIRST LDB TIMESTEP     50
Info: LAST LDB TIMESTEP     -1
Info: HOM BACKGROUND SCALING 1
Info: PME BACKGROUND SCALING 1
Info: MIN ATOMS PER PATCH    40
Info: EMPTY PATCH LOAD       40 ATOMS
Info: VELOCITY FILE          mobley_3378420_equil.vel
Info: CENTER OF MASS MOVING INITIALLY? NO
Info: DIELECTRIC             1
Info: EXCLUDE                SCALED ONE-FOUR
Info: 1-4 ELECTROSTATICS SCALED BY 0.833333
Info: MODIFIED 1-4 VDW PARAMETERS WILL BE USED
Info: DCD FILENAME           mobley_3378420_prod.dcd
Info: DCD FREQUENCY          100000
Info: DCD FIRST STEP         100000
Info: DCD FILE WILL CONTAIN UNIT CELL DATA
Info: XST FILENAME           mobley_3378420_prod.xst
Info: XST FREQUENCY          100000
Info: NO VELOCITY DCD OUTPUT
Info: NO FORCE DCD OUTPUT
Info: OUTPUT FILENAME        mobley_3378420_prod
Info: BINARY OUTPUT FILES WILL BE USED
Info: RESTART FILENAME       mobley_3378420_prod.restart
Info: RESTART FREQUENCY      100000
Info: BINARY RESTART FILES WILL BE USED
Info: CUTOFF                 9
Info: PAIRLIST DISTANCE      11
Info: PAIRLIST SHRINK RATE   0.01
Info: PAIRLIST GROW RATE     0.01
Info: PAIRLIST TRIGGER       0.3
Info: PAIRLISTS PER CYCLE    2
Info: PAIRLISTS ENABLED
Info: MARGIN                 2
Info: HYDROGEN GROUP CUTOFF  2.5
Info: PATCH DIMENSION        15.5
Info: ENERGY OUTPUT STEPS    100000
Info: ENERGY EVALUATION STEPS    100000
Info: OUTPUT ENERGY PRECISION 4
Info: CROSSTERM ENERGY INCLUDED IN DIHEDRAL
Info: TIMING OUTPUT STEPS    1000000
Info: PRESSURE OUTPUT STEPS  100000
Info: ALCHEMICAL FEP ON
Info: FEP CURRENT LAMBDA VALUE     1
Info: FEP COMPARISON LAMBDA VALUE  0.95
Info: FEP INTRA-ALCHEMICAL NON-BONDED INTERACTIONS WILL BE RETAINED
Info: FEP INTRA-ALCHEMICAL BONDED INTERACTIONS WILL BE RETAINED
Info: FEP VDW SHIFTING COEFFICIENT 5
Info: FEP ELEC. ACTIVE FOR ANNIHILATED PARTICLES BETWEEN LAMBDA = 0 AND LAMBDA = 0.5
Info: FEP ELEC. ACTIVE FOR EXNIHILATED PARTICLES BETWEEN LAMBDA = 0.5 AND LAMBDA = 1
Info: FEP VDW ACTIVE FOR ANNIHILATED PARTICLES BETWEEN LAMBDA = 0 AND LAMBDA = 1
Info: FEP VDW ACTIVE FOR EXNIHILATED PARTICLES BETWEEN LAMBDA = 0 AND LAMBDA = 1
Info: FEP BOND ACTIVE FOR ANNIHILATED PARTICLES BETWEEN LAMBDA = 1 AND LAMBDA = 1
Info: FEP BOND ACTIVE FOR EXNIHILATED PARTICLES BETWEEN LAMBDA = 0 AND LAMBDA = 0
Info: LANGEVIN DYNAMICS ACTIVE
Info: LANGEVIN TEMPERATURE   300
Info: LANGEVIN USING BBK INTEGRATOR
Info: LANGEVIN DAMPING COEFFICIENT IS 1 INVERSE PS
Info: LANGEVIN DYNAMICS APPLIED TO HYDROGENS
Info: LANGEVIN PISTON PRESSURE CONTROL ACTIVE
Info:        TARGET PRESSURE IS 1.01325 BAR
Info:     OSCILLATION PERIOD IS 50 FS
Info:             DECAY TIME IS 25 FS
Info:     PISTON TEMPERATURE IS 300 K
Info:       PRESSURE CONTROL IS GROUP-BASED
Info:    INITIAL STRAIN RATE IS 8.19038e-05 8.19038e-05 8.19038e-05
Info:       CELL FLUCTUATION IS ISOTROPIC
Info: PARTICLE MESH EWALD (PME) ACTIVE
Info: PME TOLERANCE               1e-06
Info: PME EWALD COEFFICIENT       0.348832
Info: PME INTERPOLATION ORDER     4
Info: PME GRID DIMENSIONS         28 32 36
Info: PME MAXIMUM GRID SPACING    1
Info: PME CALCULATION WILL BE PERFORMED ON GPU
Info: FULL ELECTROSTATIC EVALUATION FREQUENCY      2
Info: USING VERLET I (r-RESPA) MTS SCHEME.
Info: C1 SPLITTING OF LONG RANGE ELECTROSTATICS
Info: PLACING ATOMS IN PATCHES BY HYDROGEN GROUPS
Info: RIGID BONDS TO HYDROGEN : ALL
Info:         ERROR TOLERANCE : 1e-08
Info:          MAX ITERATIONS : 100
Info: RIGID WATER USING SETTLE ALGORITHM
Info: RANDOM NUMBER SEED     1744083648
Info: USE HYDROGEN BONDS?    NO
Info: Using AMBER format force field!
Info: AMBER PARM FILE        mobley_3378420.prmtop
Info: COORDINATE PDB         mobley_3378420.pdb
Info: Exclusions will be read from PARM file!
Info: SCNB (VDW SCALING)     2
Info: USING ARITHMETIC MEAN TO COMBINE L-J SIGMA PARAMETERS
Info: BINARY COORDINATES     mobley_3378420_equil.coor
Info: SUMMARY OF PARAMETERS:
Info: 7 BONDS
Info: 8 ANGLES
Info:   8 HARMONIC
Info:   0 COSINE-BASED
Info: 9 DIHEDRAL
Info: 0 IMPROPER
Info: 0 CROSSTERM
Info: 0 VDW
Info: 21 VDW_PAIRS
Info: 0 NBTHOLE_PAIRS
Info: To read alchdata from file: mobley_3378420.pdb
Info: To read alchflag data from column: 5
Info: STRUCTURE SUMMARY:
Info: 2946 ATOMS
Info: 2945 BONDS
Info: 55 ANGLES
Info: 90 DIHEDRALS
Info: 0 IMPROPERS
Info: 0 CROSSTERMS
Info: 3075 EXCLUSIONS
Info: 2936 RIGID BONDS
Info: ALCH: 0 ATOMS TO DISAPPEAR IN FINAL STATE
Info: ALCH: 30 ATOMS TO APPEAR IN FINAL STATE
Info: 5902 DEGREES OF FREEDOM
Info: 982 HYDROGEN GROUPS
Info: 4 ATOMS IN LARGEST HYDROGEN GROUP
Info: 982 MIGRATION GROUPS
Info: 4 ATOMS IN LARGEST MIGRATION GROUP
Info: TOTAL MASS = 17655.8 amu
Info: TOTAL CHARGE = 9.99644e-05 e
Info: MASS DENSITY = 0.968485 g/cm^3
Info: ATOM DENSITY = 0.0973148 atoms/A^3
Info: ADDED 0 IMPLICIT EXCLUSIONS
Info: NONBONDED TABLE R-SQUARED SPACING: 0.0625
Info: NONBONDED TABLE SIZE: 705 POINTS
Info: REMOVING COM VELOCITY 0.190132 0.0630279 0.0913089
Info: Use 3D box decompostion in PME FFT.
Info: Updated CUDA force table with 4096 elements.
Info: Updated CUDA LJ table with 6 x 6 elements.
Info: Found 33 unique exclusion lists needing 136 bytes
TCL: Running for 1500000 steps
ETITLE: TS BOND ANGLE DIHED IMPRP ELECT VDW BOUNDARY MISC KINETIC TOTAL TEMP POTENTIAL TOTALAVG TEMPAVG PRESSURE GPRESSURE VOLUME PRESSAVG GPRESSAVG
ENERGY: 0 1.6892 15.3054 9.8449 0.0000 -10592.6015 1383.6027 0.0000 0.0000 1759.4139 -7422.7454 300.0262 -9182.1593 -7422.7454 300.0262 -279.7365 -197.4791 30272.8734 -279.7365 -197.4791
ENERGY: 300000 2.1714 20.0844 6.4312 0.0000 -10685.9018 1466.3985 0.0000 0.0000 1793.9608 -7396.8555 305.9174 -9190.8163 -7421.3331 297.8802 369.2530 406.6096 29973.4131 -47.1059 -0.8565
ENERGY: 600000 3.5691 8.9935 6.7381 0.0000 -10590.1833 1397.6525 0.0000 0.0000 1759.9077 -7413.3222 300.1104 -9173.2300 -7420.7144 298.3951 95.6339 103.8201 30081.2930 -197.0758 -153.2917
ENERGY: 900000 2.9107 14.6352 4.7693 0.0000 -10605.6039 1443.6127 0.0000 0.0000 1750.1241 -7389.5519 298.4421 -9139.6760 -7425.1581 298.3903 575.1132 624.0697 30046.5987 -38.3609 12.1067
ENERGY: 1200000 2.7088 17.0109 6.6638 0.0000 -10501.3935 1358.8942 0.0000 0.0000 1740.8240 -7375.2917 296.8561 -9116.1157 -7413.2091 298.7655 -536.3472 -401.8106 30375.7900 -102.7090 -45.4741
ENERGY: 1500000 4.2445 16.5835 7.5712 0.0000 -10632.0446 1444.1205 0.0000 0.0000 1772.7057 -7386.8193 302.2928 -9159.5249 -7410.9654 299.8919 332.8210 410.7210 29883.2169 -71.0736 -13.9445
TCL: Running FEP window   2: Lambda1 0.95   Lambda2 0.8999999999999999 [dLambda -0.050000000000000044]
TCL: Setting parameter firsttimestep to 0
TCL: Setting parameter alchLambda to 0.95
Info: NONBONDED TABLE R-SQUARED SPACING: 0.0625
Info: NONBONDED TABLE SIZE: 705 POINTS
TCL: Setting parameter alchLambda2 to 0.8999999999999999
Info: NONBONDED TABLE R-SQUARED SPACING: 0.0625
Info: NONBONDED TABLE SIZE: 705 POINTS
TCL: Running for 1500000 steps
ETITLE: TS BOND ANGLE DIHED IMPRP ELECT VDW BOUNDARY MISC KINETIC TOTAL TEMP POTENTIAL TOTALAVG TEMPAVG PRESSURE GPRESSURE VOLUME PRESSAVG GPRESSAVG
ENERGY: 0 4.2444 16.5835 7.5712 0.0000 -10631.1029 1443.8788 0.0000 0.0000 1771.8182 -7387.0068 302.1415 -9158.8250 -7387.0068 302.1415 311.7358 391.3407 29883.2169 311.7358 391.3407
ENERGY: 300000 3.0083 17.1414 7.6633 0.0000 -10620.1700 1318.0913 0.0000 0.0000 1783.3497 -7490.9160 304.1079 -9274.2657 -7416.8221 303.9454 -878.4942 -796.9222 29986.2758 102.2386 195.0927
ENERGY: 600000 1.6588 15.3923 8.3273 0.0000 -10435.4901 1295.1300 0.0000 0.0000 1767.1156 -7347.8660 301.3396 -9114.9816 -7401.2598 302.5046 -690.3461 -604.3548 30082.3896 -15.6691 66.0027
ENERGY: 900000 6.3038 10.6706 5.7327 0.0000 -10564.7536 1416.3714 0.0000 0.0000 1766.9724 -7358.7027 301.3151 -9125.6751 -7393.4818 303.0163 -155.3640 -80.0158 30524.2539 -38.4788 38.3882
ENERGY: 1200000 3.8616 10.6122 4.4611 0.0000 -10622.9111 1354.5407 0.0000 0.0000 1779.5092 -7469.9264 303.4530 -9249.4356 -7391.6446 303.0403 -589.4667 -540.5672 30109.6642 -21.6201 48.3459
ENERGY: 1500000 3.7594 10.1548 5.4896 0.0000 -10613.4589 1331.9625 0.0000 0.0000 1775.6509 -7486.4418 302.7950 -9262.0927 -7405.3687 302.4074 -1097.0492 -1059.4135 30353.2646 -114.4630 -51.4121
TCL: Running FEP window   3: Lambda1 0.8999999999999999 Lambda2 0.8499999999999999 [dLambda -0.050000000000000044]
TCL: Setting parameter firsttimestep to 0
TCL: Setting parameter alchLambda to 0.8999999999999999
Info: NONBONDED TABLE R-SQUARED SPACING: 0.0625
Info: NONBONDED TABLE SIZE: 705 POINTS
TCL: Setting parameter alchLambda2 to 0.8499999999999999
Info: NONBONDED TABLE R-SQUARED SPACING: 0.0625
Info: NONBONDED TABLE SIZE: 705 POINTS
TCL: Running for 1500000 steps
ETITLE: TS BOND ANGLE DIHED IMPRP ELECT VDW BOUNDARY MISC KINETIC TOTAL TEMP POTENTIAL TOTALAVG TEMPAVG PRESSURE GPRESSURE VOLUME PRESSAVG GPRESSAVG
ENERGY: 0 3.7594 10.1548 5.4896 0.0000 -10612.2913 1331.4897 0.0000 0.0000 1774.7781 -7486.6198 302.6462 -9261.3979 -7486.6198 302.6462 -1168.4581 -1080.3600 30353.2646 -1168.4581 -1080.3600
ENERGY: 300000 3.7516 15.4799 5.1519 0.0000 -10446.1498 1346.6392 0.0000 0.0000 1847.1341 -7227.9930 314.9848 -9075.1272 -7372.7056 304.8178 -520.5470 -436.3542 30651.4767 -597.3508 -508.4930
ENERGY: 600000 1.9302 13.3491 5.5988 0.0000 -10644.9759 1430.3954 0.0000 0.0000 1751.9836 -7441.7188 298.7592 -9193.7024 -7400.8751 303.0714 8.0634 57.4068 30311.1652 -286.2573 -202.5940
ENERGY: 900000 2.3467 18.6643 5.8681 0.0000 -10734.9970 1523.1461 0.0000 0.0000 1720.0174 -7464.9544 293.3081 -9184.9717 -7409.8343 301.4952 640.9822 752.2206 30158.5131 -286.2986 -198.0718
ENERGY: 1200000 3.0079 14.2881 6.2354 0.0000 -10756.7317 1510.4936 0.0000 0.0000 1758.8251 -7463.8816 299.9258 -9222.7067 -7420.1308 301.7371 508.5916 581.2529 29946.6041 -244.5083 -155.0000
ENERGY: 1500000 2.3296 15.2856 6.0597 0.0000 -10655.6969 1462.0319 0.0000 0.0000 1775.4207 -7394.5695 302.7558 -9169.9902 -7412.1683 301.6882 326.6430 375.8619 30292.7279 -140.9662 -58.1448
TCL: Running FEP window   4: Lambda1 0.8499999999999999 Lambda2 0.7999999999999998 [dLambda -0.050000000000000044]
TCL: Setting parameter firsttimestep to 0
TCL: Setting parameter alchLambda to 0.8499999999999999
Info: NONBONDED TABLE R-SQUARED SPACING: 0.0625
Info: NONBONDED TABLE SIZE: 705 POINTS
TCL: Setting parameter alchLambda2 to 0.7999999999999998
Info: NONBONDED TABLE R-SQUARED SPACING: 0.0625
Info: NONBONDED TABLE SIZE: 705 POINTS
TCL: Running for 1500000 steps
ETITLE: TS BOND ANGLE DIHED IMPRP ELECT VDW BOUNDARY MISC KINETIC TOTAL TEMP POTENTIAL TOTALAVG TEMPAVG PRESSURE GPRESSURE VOLUME PRESSAVG GPRESSAVG
ENERGY: 0 2.3295 15.2856 6.0597 0.0000 -10652.6428 1458.1830 0.0000 0.0000 1774.5791 -7396.2060 302.6123 -9170.7850 -7396.2060 302.6123 230.6421 321.3366 30292.7279 230.6421 321.3366
ENERGY: 300000 2.4713 15.5416 6.6510 0.0000 -10682.5642 1458.7957 0.0000 0.0000 1762.3130 -7436.7916 300.5206 -9199.1046 -7439.0564 302.0341 446.3667 459.3744 30014.6088 179.1524 202.9432
ENERGY: 600000 3.2068 13.9731 4.3291 0.0000 -10674.7662 1437.8711 0.0000 0.0000 1745.4415 -7469.9447 297.6435 -9215.3861 -7430.3164 300.2549 95.6593 160.3297 30002.2807 195.6734 240.0128
ENERGY: 900000 4.0326 19.1233 5.6856 0.0000 -10565.3528 1378.2401 0.0000 0.0000 1722.9477 -7435.3235 293.8078 -9158.2712 -7412.5831 301.0538 -677.5609 -620.4344 30480.2732 40.9088 86.7534
ENERGY: 1200000 1.0366 14.5625 8.1183 0.0000 -10657.2976 1404.5273 0.0000 0.0000 1763.0876 -7465.9652 300.6527 -9229.0528 -7421.7385 299.8303 -165.8132 -115.5944 30169.9996 48.8002 94.8373
ENERGY: 1500000 3.7060 11.1098 5.3405 0.0000 -10693.2675 1418.7602 0.0000 0.0000 1760.2410 -7494.1100 300.1673 -9254.3510 -7423.1134 299.9746 -284.7275 -195.6104 30035.3114 -22.6821 31.7742
TCL: Running FEP window   5: Lambda1 0.7999999999999998 Lambda2 0.7499999999999998 [dLambda -0.050000000000000044]
TCL: Setting parameter firsttimestep to 0
TCL: Setting parameter alchLambda to 0.7999999999999998
Info: NONBONDED TABLE R-SQUARED SPACING: 0.0625
Info: NONBONDED TABLE SIZE: 705 POINTS
TCL: Setting parameter alchLambda2 to 0.7499999999999998
Info: NONBONDED TABLE R-SQUARED SPACING: 0.0625
Info: NONBONDED TABLE SIZE: 705 POINTS
TCL: Running for 1500000 steps
ETITLE: TS BOND ANGLE DIHED IMPRP ELECT VDW BOUNDARY MISC KINETIC TOTAL TEMP POTENTIAL TOTALAVG TEMPAVG PRESSURE GPRESSURE VOLUME PRESSAVG GPRESSAVG
ENERGY: 0 3.7060 11.1098 5.3405 0.0000 -10692.4452 1418.9715 0.0000 0.0000 1759.4017 -7493.9157 300.0241 -9253.3175 -7493.9157 300.0241 -297.4158 -208.9874 30035.3114 -297.4158 -208.9874
ENERGY: 300000 2.8625 11.7735 7.5267 0.0000 -10636.7702 1393.8916 0.0000 0.0000 1702.7741 -7517.9419 290.3676 -9220.7160 -7466.0551 297.2377 -361.1859 -275.0359 29954.9322 -9.6033 59.2092
ENERGY: 600000 2.9447 16.1956 4.1308 0.0000 -10529.4081 1372.3609 0.0000 0.0000 1724.2022 -7409.5739 294.0217 -9133.7761 -7431.0727 298.7049 -461.2990 -325.1760 30467.5296 184.7203 249.2662
ENERGY: 900000 3.2701 13.2567 7.8360 0.0000 -10632.7515 1440.1522 0.0000 0.0000 1680.0291 -7488.2074 286.4890 -9168.2365 -7438.4828 298.1731 98.4101 119.3980 30511.4010 160.5756 226.6040
ENERGY: 1200000 2.0809 11.8771 5.3862 0.0000 -10412.8892 1296.6536 0.0000 0.0000 1779.6364 -7317.2550 303.4747 -9096.8914 -7417.9138 300.2108 -809.7883 -768.7260 30733.9171 74.3578 139.2832
ENERGY: 1500000 3.9155 15.1544 7.3050 0.0000 -10692.5119 1432.3459 0.0000 0.0000 1735.4339 -7498.3573 295.9370 -9233.7912 -7423.2353 300.0626 -232.7717 -156.7288 30143.2724 84.3997 153.5562
TCL: Running FEP window   6: Lambda1 0.7499999999999998 Lambda2 0.6999999999999997 [dLambda -0.050000000000000044]
TCL: Setting parameter firsttimestep to 0
TCL: Setting parameter alchLambda to 0.7499999999999998
Info: NONBONDED TABLE R-SQUARED SPACING: 0.0625
Info: NONBONDED TABLE SIZE: 705 POINTS
TCL: Setting parameter alchLambda2 to 0.6999999999999997
Info: NONBONDED TABLE R-SQUARED SPACING: 0.0625
Info: NONBONDED TABLE SIZE: 705 POINTS
TCL: Running for 1500000 steps
ETITLE: TS BOND ANGLE DIHED IMPRP ELECT VDW BOUNDARY MISC KINETIC TOTAL TEMP POTENTIAL TOTALAVG TEMPAVG PRESSURE GPRESSURE VOLUME PRESSAVG GPRESSAVG
ENERGY: 0 3.9155 15.1544 7.3050 0.0000 -10691.9667 1432.3324 0.0000 0.0000 1734.5807 -7498.6787 295.7915 -9233.2594 -7498.6787 295.7915 -262.4341 -170.6700 30143.2724 -262.4341 -170.6700
ENERGY: 300000 1.8580 12.5145 6.4364 0.0000 -10603.0212 1370.8543 0.0000 0.0000 1777.4375 -7433.9205 303.0997 -9211.3580 -7401.2106 300.6101 -549.1551 -502.7020 30689.2175 -340.8598 -261.7833
ENERGY: 600000 3.2765 13.6065 8.1516 0.0000 -10677.8856 1442.9517 0.0000 0.0000 1753.4016 -7456.4977 299.0010 -9209.8993 -7417.9961 300.5593 263.6519 308.6707 29928.5871 -41.5243 29.8108
ENERGY: 900000 0.7346 9.0462 7.0972 0.0000 -10638.8141 1492.7381 0.0000 0.0000 1790.0753 -7339.1227 305.2548 -9129.1980 -7396.7514 301.5904 595.4617 723.2931 30297.6785 -27.7616 41.4651
ENERGY: 1200000 1.8607 12.4366 5.2869 0.0000 -10583.8235 1440.4065 0.0000 0.0000 1782.7682 -7341.0645 304.0087 -9123.8328 -7397.6539 300.9493 134.4563 178.7020 30575.9198 -41.2031 25.4929
ENERGY: 1500000 4.9299 9.6803 4.3804 0.0000 -10565.2640 1351.9643 0.0000 0.0000 1749.4250 -7444.8842 298.3228 -9194.3092 -7400.8684 300.4479 -842.0428 -824.1408 30896.8316 -75.4075 -6.5205
TCL: Running FEP window   7: Lambda1 0.6999999999999997 Lambda2 0.6499999999999997 [dLambda -0.050000000000000044]
TCL: Setting parameter firsttimestep to 0
TCL: Setting parameter alchLambda to 0.6999999999999997
Info: NONBONDED TABLE R-SQUARED SPACING: 0.0625
Info: NONBONDED TABLE SIZE: 705 POINTS
TCL: Setting parameter alchLambda2 to 0.6499999999999997
Info: NONBONDED TABLE R-SQUARED SPACING: 0.0625
Info: NONBONDED TABLE SIZE: 705 POINTS
TCL: Running for 1500000 steps
ETITLE: TS BOND ANGLE DIHED IMPRP ELECT VDW BOUNDARY MISC KINETIC TOTAL TEMP POTENTIAL TOTALAVG TEMPAVG PRESSURE GPRESSURE VOLUME PRESSAVG GPRESSAVG
ENERGY: 0 4.9299 9.6803 4.3804 0.0000 -10564.4549 1351.6309 0.0000 0.0000 1748.5464 -7445.2871 298.1730 -9193.8335 -7445.2871 298.1730 -910.9745 -837.0351 30896.8316 -910.9745 -837.0351
ENERGY: 300000 2.6059 11.5295 4.9340 0.0000 -10703.5722 1459.6876 0.0000 0.0000 1738.6397 -7486.1755 296.4837 -9224.8152 -7439.2688 298.1431 162.9136 244.2163 29877.4684 -149.9972 -71.6980
ENERGY: 600000 2.2153 13.8920 5.5345 0.0000 -10674.1847 1451.4467 0.0000 0.0000 1774.1797 -7426.9166 302.5442 -9201.0963 -7407.1299 300.1690 -176.6798 -95.7540 30561.1680 -227.0401 -151.8837
ENERGY: 900000 4.8935 11.5775 6.3591 0.0000 -10741.4688 1480.7610 0.0000 0.0000 1764.4470 -7473.4306 300.8845 -9237.8776 -7405.3923 300.3192 203.6476 304.3764 30049.6782 -63.9838 7.3076
ENERGY: 1200000 0.8943 13.5221 6.8062 0.0000 -10570.6912 1377.6045 0.0000 0.0000 1743.4538 -7428.4103 297.3046 -9171.8640 -7412.4427 299.2683 -253.1394 -178.5832 29965.7571 -32.3096 36.9989
ENERGY: 1500000 3.4208 16.0401 5.9970 0.0000 -10530.9477 1355.3717 0.0000 0.0000 1768.8911 -7381.2271 301.6423 -9150.1181 -7408.1659 299.0793 -1010.9076 -933.5293 31086.7025 -50.6617 21.8101
TCL: Running FEP window   8: Lambda1 0.6499999999999997 Lambda2 0.5999999999999996 [dLambda -0.050000000000000044]
TCL: Setting parameter firsttimestep to 0
TCL: Setting parameter alchLambda to 0.6499999999999997
Info: NONBONDED TABLE R-SQUARED SPACING: 0.0625
Info: NONBONDED TABLE SIZE: 705 POINTS
TCL: Setting parameter alchLambda2 to 0.5999999999999996
Info: NONBONDED TABLE R-SQUARED SPACING: 0.0625
Info: NONBONDED TABLE SIZE: 705 POINTS
TCL: Running for 1500000 steps
ETITLE: TS BOND ANGLE DIHED IMPRP ELECT VDW BOUNDARY MISC KINETIC TOTAL TEMP POTENTIAL TOTALAVG TEMPAVG PRESSURE GPRESSURE VOLUME PRESSAVG GPRESSAVG
ENERGY: 0 3.4208 16.0401 5.9970 0.0000 -10530.4275 1355.7344 0.0000 0.0000 1768.0051 -7381.2302 301.4912 -9149.2352 -7381.2302 301.4912 -1015.3227 -943.9675 31086.7025 -1015.3227 -943.9675
ENERGY: 300000 1.4911 15.7307 6.7000 0.0000 -10645.1968 1423.3043 0.0000 0.0000 1684.6719 -7513.2988 287.2807 -9197.9707 -7441.0215 296.3047 -348.9680 -309.3307 30455.8708 -515.6853 -444.3934
ENERGY: 600000 2.8645 17.6038 7.7991 0.0000 -10585.9426 1402.8760 0.0000 0.0000 1744.2596 -7410.5396 297.4420 -9154.7991 -7433.4828 297.0811 -96.0459 -88.7442 30320.8310 -236.0040 -175.3772
ENERGY: 900000 2.4131 11.9749 5.0141 0.0000 -10566.9997 1438.8072 0.0000 0.0000 1797.4442 -7311.3460 306.5114 -9108.7902 -7415.9685 299.3278 351.9580 447.5351 30223.4870 -56.2924 6.8094
ENERGY: 1200000 4.4739 13.4189 6.3869 0.0000 -10647.7823 1458.4752 0.0000 0.0000 1822.7600 -7342.2674 310.8284 -9165.0274 -7403.8623 300.4789 180.7066 200.1745 30126.0440 -30.2264 22.0209
ENERGY: 1500000 2.8300 11.6667 5.2625 0.0000 -10545.6011 1405.9056 0.0000 0.0000 1683.8678 -7436.0685 287.1436 -9119.9363 -7406.2746 299.4993 -171.1657 -121.2394 30323.2664 -2.2694 51.8299
TCL: Running FEP window   9: Lambda1 0.5999999999999996 Lambda2 0.5499999999999996 [dLambda -0.050000000000000044]
TCL: Setting parameter firsttimestep to 0
TCL: Setting parameter alchLambda to 0.5999999999999996
Info: NONBONDED TABLE R-SQUARED SPACING: 0.0625
Info: NONBONDED TABLE SIZE: 705 POINTS
TCL: Setting parameter alchLambda2 to 0.5499999999999996
Info: NONBONDED TABLE R-SQUARED SPACING: 0.0625
Info: NONBONDED TABLE SIZE: 705 POINTS
TCL: Running for 1500000 steps
ETITLE: TS BOND ANGLE DIHED IMPRP ELECT VDW BOUNDARY MISC KINETIC TOTAL TEMP POTENTIAL TOTALAVG TEMPAVG PRESSURE GPRESSURE VOLUME PRESSAVG GPRESSAVG
ENERGY: 0 2.8300 11.6666 5.2625 0.0000 -10544.5584 1405.8104 0.0000 0.0000 1682.9843 -7436.0046 286.9930 -9118.9889 -7436.0046 286.9930 -194.8054 -131.5724 30323.2664 -194.8054 -131.5724
ENERGY: 300000 3.2087 17.9500 6.4029 0.0000 -10728.6149 1477.8109 0.0000 0.0000 1807.9413 -7415.3011 308.3014 -9223.2424 -7428.9030 299.4455 245.3401 236.8471 30281.4707 -222.8862 -148.3958
ENERGY: 600000 3.0864 15.5282 4.7810 0.0000 -10659.4459 1384.8676 0.0000 0.0000 1766.4685 -7484.7142 301.2292 -9251.1827 -7436.5871 298.5124 -463.0872 -441.3710 29795.0275 -116.6937 -57.6619
ENERGY: 900000 6.4524 14.6963 5.2608 0.0000 -10622.5080 1461.5276 0.0000 0.0000 1751.7977 -7382.7733 298.7274 -9134.5710 -7422.9385 299.2337 541.1810 519.0354 30101.4197 -121.3334 -64.3963
ENERGY: 1200000 2.0991 12.8255 6.3164 0.0000 -10584.1973 1388.7466 0.0000 0.0000 1706.9117 -7467.2979 291.0732 -9174.2097 -7435.7775 298.4063 -507.2793 -449.3056 30350.8086 -29.3062 23.4384
ENERGY: 1500000 4.9870 15.7026 6.6886 0.0000 -10723.7413 1445.5621 0.0000 0.0000 1702.3502 -7548.4509 290.2954 -9250.8011 -7435.3455 297.3934 -174.9296 -82.9902 29879.9672 -39.6676 15.9852
TCL: Running FEP window  10: Lambda1 0.5499999999999996 Lambda2 0.4999999999999996 [dLambda -0.04999999999999999]
TCL: Setting parameter firsttimestep to 0
TCL: Setting parameter alchLambda to 0.5499999999999996
Info: NONBONDED TABLE R-SQUARED SPACING: 0.0625
Info: NONBONDED TABLE SIZE: 705 POINTS
TCL: Setting parameter alchLambda2 to 0.4999999999999996
Info: NONBONDED TABLE R-SQUARED SPACING: 0.0625
Info: NONBONDED TABLE SIZE: 705 POINTS
TCL: Running for 1500000 steps
ETITLE: TS BOND ANGLE DIHED IMPRP ELECT VDW BOUNDARY MISC KINETIC TOTAL TEMP POTENTIAL TOTALAVG TEMPAVG PRESSURE GPRESSURE VOLUME PRESSAVG GPRESSAVG
ENERGY: 0 4.9870 15.7026 6.6886 0.0000 -10723.7761 1445.6912 0.0000 0.0000 1701.4640 -7549.2427 290.1442 -9250.7067 -7549.2427 290.1442 -196.5044 -96.8657 29879.9672 -196.5044 -96.8657
ENERGY: 300000 3.1349 17.9154 7.2002 0.0000 -10436.4263 1352.7426 0.0000 0.0000 1717.0261 -7338.4070 292.7980 -9055.4331 -7419.2182 295.4948 -374.4603 -297.9293 30499.3235 -67.7414 11.6134
ENERGY: 600000 1.6118 20.2961 5.6507 0.0000 -10681.1904 1534.9742 0.0000 0.0000 1816.7822 -7301.8753 309.8090 -9118.6575 -7402.6822 298.0038 809.6165 887.8705 30708.9190 20.5421 107.7826
ENERGY: 900000 2.4991 15.8928 5.6276 0.0000 -10460.9797 1342.8350 0.0000 0.0000 1754.8579 -7339.2674 299.2493 -9094.1253 -7391.0766 298.8568 -433.2609 -421.8740 30306.7784 45.1935 121.8831
ENERGY: 1200000 2.6248 13.0062 5.6757 0.0000 -10703.2039 1444.4961 0.0000 0.0000 1756.6782 -7480.7231 299.5597 -9237.4012 -7398.2890 299.4756 -133.9629 -19.5362 30318.1406 3.0635 84.6143
ENERGY: 1500000 2.3945 13.3308 6.5725 0.0000 -10709.8746 1471.4906 0.0000 0.0000 1731.8152 -7484.2709 295.3199 -9216.0862 -7405.7351 299.3818 180.0398 208.2374 30054.7744 7.9130 88.7749
TCL: Running FEP window  11: Lambda1 0.4999999999999996 Lambda2 0.4499999999999996 [dLambda -0.04999999999999999]
TCL: Setting parameter firsttimestep to 0
TCL: Setting parameter alchLambda to 0.4999999999999996
Info: NONBONDED TABLE R-SQUARED SPACING: 0.0625
Info: NONBONDED TABLE SIZE: 705 POINTS
TCL: Setting parameter alchLambda2 to 0.4499999999999996
Info: NONBONDED TABLE R-SQUARED SPACING: 0.0625
Info: NONBONDED TABLE SIZE: 705 POINTS
TCL: Running for 1500000 steps
ETITLE: TS BOND ANGLE DIHED IMPRP ELECT VDW BOUNDARY MISC KINETIC TOTAL TEMP POTENTIAL TOTALAVG TEMPAVG PRESSURE GPRESSURE VOLUME PRESSAVG GPRESSAVG
ENERGY: 0 2.3945 13.3308 6.5725 0.0000 -10709.6835 1472.0578 0.0000 0.0000 1730.9515 -7484.3764 295.1726 -9215.3279 -7484.3764 295.1726 134.9567 206.1715 30054.7744 134.9567 206.1715
ENERGY: 300000 2.7499 10.5450 6.2006 0.0000 -10553.2123 1390.7008 0.0000 0.0000 1768.6324 -7374.3837 301.5982 -9143.0161 -7421.6001 298.3001 -87.5745 -48.0706 30124.9989 -12.4943 40.2566
ENERGY: 600000 0.9767 17.9652 6.4308 0.0000 -10662.9034 1415.1491 0.0000 0.0000 1754.8810 -7467.5005 299.2532 -9222.3815 -7413.0821 299.7314 -328.9626 -180.0643 30139.7644 134.4967 203.2022
ENERGY: 900000 3.9401 15.7359 5.5489 0.0000 -10568.1473 1411.4836 0.0000 0.0000 1744.6995 -7386.7392 297.5170 -9131.4388 -7401.6330 300.4020 -263.8425 -154.9308 30613.5810 -11.4657 66.7396
ENERGY: 1200000 5.3891 8.6124 6.0885 0.0000 -10616.7520 1466.8113 0.0000 0.0000 1793.6824 -7336.1683 305.8699 -9129.8507 -7398.6914 300.5910 372.5794 431.3833 30419.9019 -82.4974 -5.6159
ENERGY: 1500000 0.9063 17.1151 5.9007 0.0000 -10676.2600 1461.6875 0.0000 0.0000 1739.6424 -7451.0079 296.6547 -9190.6503 -7402.5303 299.9842 339.3947 379.1777 29993.6798 -67.6405 10.7378
TCL: Running FEP window  12: Lambda1 0.4499999999999996 Lambda2 0.39999999999999963 [dLambda -0.04999999999999999]
TCL: Setting parameter firsttimestep to 0
TCL: Setting parameter alchLambda to 0.4499999999999996
Info: NONBONDED TABLE R-SQUARED SPACING: 0.0625
Info: NONBONDED TABLE SIZE: 705 POINTS
TCL: Setting parameter alchLambda2 to 0.39999999999999963
Info: NONBONDED TABLE R-SQUARED SPACING: 0.0625
Info: NONBONDED TABLE SIZE: 705 POINTS
TCL: Running for 1500000 steps
ETITLE: TS BOND ANGLE DIHED IMPRP ELECT VDW BOUNDARY MISC KINETIC TOTAL TEMP POTENTIAL TOTALAVG TEMPAVG PRESSURE GPRESSURE VOLUME PRESSAVG GPRESSAVG
ENERGY: 0 0.9063 17.1151 5.9007 0.0000 -10676.2598 1461.8596 0.0000 0.0000 1738.7680 -7451.7100 296.5055 -9190.4780 -7451.7100 296.5055 283.8645 368.7744 29993.6798 283.8645 368.7744
ENERGY: 300000 2.3486 17.3803 5.0910 0.0000 -10587.5538 1397.0487 0.0000 0.0000 1829.9752 -7335.7100 312.0588 -9165.6851 -7370.9104 302.7981 -28.5797 12.9401 29994.7874 -110.8307 -60.8050
ENERGY: 600000 5.8276 12.0019 7.4780 0.0000 -10636.2556 1461.5982 0.0000 0.0000 1828.3453 -7321.0047 311.7808 -9149.3500 -7367.5978 303.7461 127.4964 110.1773 30413.5536 67.6972 110.0177
ENERGY: 900000 2.9603 9.8968 5.1997 0.0000 -10472.9297 1343.3427 0.0000 0.0000 1733.0563 -7378.4738 295.5315 -9111.5301 -7365.3382 303.1526 -266.6057 -257.6497 29769.8025 48.7621 80.7743
ENERGY: 1200000 6.0835 15.0340 5.1579 0.0000 -10617.6233 1364.5980 0.0000 0.0000 1785.6131 -7441.1368 304.4939 -9226.7499 -7379.0869 302.0688 -628.0617 -648.7014 30309.5683 -1.2705 33.1896
ENERGY: 1500000 2.4007 14.7062 5.6362 0.0000 -10632.9517 1416.6783 0.0000 0.0000 1786.8705 -7406.6599 304.7083 -9193.5304 -7389.2650 301.5008 -133.0253 10.5563 30018.5006 -77.0647 -27.3107
TCL: Running FEP window  13: Lambda1 0.39999999999999963 Lambda2 0.34999999999999964 [dLambda -0.04999999999999999]
TCL: Setting parameter firsttimestep to 0
TCL: Setting parameter alchLambda to 0.39999999999999963
Info: NONBONDED TABLE R-SQUARED SPACING: 0.0625
Info: NONBONDED TABLE SIZE: 705 POINTS
TCL: Setting parameter alchLambda2 to 0.34999999999999964
Info: NONBONDED TABLE R-SQUARED SPACING: 0.0625
Info: NONBONDED TABLE SIZE: 705 POINTS
TCL: Running for 1500000 steps
ETITLE: TS BOND ANGLE DIHED IMPRP ELECT VDW BOUNDARY MISC KINETIC TOTAL TEMP POTENTIAL TOTALAVG TEMPAVG PRESSURE GPRESSURE VOLUME PRESSAVG GPRESSAVG
ENERGY: 0 2.4007 14.7062 5.6362 0.0000 -10632.9521 1416.6438 0.0000 0.0000 1785.9887 -7407.5765 304.5579 -9193.5652 -7407.5765 304.5579 -91.9377 0.2719 30018.5006 -91.9377 0.2719
ENERGY: 300000 0.8737 11.0500 8.0567 0.0000 -10643.6469 1449.9620 0.0000 0.0000 1807.9967 -7365.7078 308.3108 -9173.7044 -7412.6841 302.4630 253.5383 268.6039 30090.4232 -79.3645 6.9500
ENERGY: 600000 4.1476 17.2206 6.6334 0.0000 -10744.8083 1498.0651 0.0000 0.0000 1754.2008 -7464.5409 299.1372 -9218.7417 -7422.5496 300.8259 521.3774 553.7405 29829.3732 -162.1104 -89.8816
ENERGY: 900000 4.8948 10.7047 6.7317 0.0000 -10661.7040 1439.1690 0.0000 0.0000 1785.3216 -7414.8821 304.4442 -9200.2038 -7413.1659 301.2901 193.1313 205.2379 29954.2133 -152.7577 -78.0032
ENERGY: 1200000 1.9130 12.6171 5.3394 0.0000 -10460.2988 1310.6709 0.0000 0.0000 1718.3205 -7411.4378 293.0187 -9129.7583 -7420.1461 300.4345 -1183.9223 -1135.1518 30809.4120 -201.3308 -133.9143
ENERGY: 1500000 1.2877 16.6992 9.5499 0.0000 -10567.8209 1362.0181 0.0000 0.0000 1753.2935 -7424.9727 298.9825 -9178.2661 -7418.6740 300.3465 -845.8347 -793.8966 30558.9685 -209.9125 -152.5884
TCL: Running FEP window  14: Lambda1 0.34999999999999964 Lambda2 0.29999999999999966 [dLambda -0.04999999999999999]
TCL: Setting parameter firsttimestep to 0
TCL: Setting parameter alchLambda to 0.34999999999999964
Info: NONBONDED TABLE R-SQUARED SPACING: 0.0625
Info: NONBONDED TABLE SIZE: 705 POINTS
TCL: Setting parameter alchLambda2 to 0.29999999999999966
Info: NONBONDED TABLE R-SQUARED SPACING: 0.0625
Info: NONBONDED TABLE SIZE: 705 POINTS
TCL: Running for 1500000 steps
ETITLE: TS BOND ANGLE DIHED IMPRP ELECT VDW BOUNDARY MISC KINETIC TOTAL TEMP POTENTIAL TOTALAVG TEMPAVG PRESSURE GPRESSURE VOLUME PRESSAVG GPRESSAVG
ENERGY: 0 1.2877 16.6992 9.5499 0.0000 -10567.8202 1362.0158 0.0000 0.0000 1752.4610 -7425.8067 298.8406 -9178.2677 -7425.8067 298.8406 -879.4245 -803.0096 30558.9685 -879.4245 -803.0096
ENERGY: 300000 1.9070 13.4124 6.9234 0.0000 -10642.7340 1477.1981 0.0000 0.0000 1711.0133 -7432.2798 291.7726 -9143.2931 -7421.6221 294.8981 538.7856 560.6586 30251.4646 -288.1860 -219.7114
ENERGY: 600000 1.3599 11.4447 6.7428 0.0000 -10547.8445 1475.7358 0.0000 0.0000 1772.8974 -7279.6640 302.3255 -9052.5613 -7409.2893 297.8125 534.5649 587.7864 30342.4143 -183.6433 -113.8040
ENERGY: 900000 2.3427 19.3287 6.5672 0.0000 -10559.9576 1395.0118 0.0000 0.0000 1756.6307 -7380.0766 299.5516 -9136.7073 -7403.4265 298.2783 -323.9971 -210.9759 30203.9310 -224.8580 -153.2522
ENERGY: 1200000 5.2700 15.3003 5.7555 0.0000 -10526.5704 1345.3846 0.0000 0.0000 1713.5894 -7441.2707 292.2119 -9154.8600 -7406.5093 297.5670 -626.8668 -619.2086 30091.6103 -257.9137 -185.0199
ENERGY: 1500000 2.6588 13.9044 5.8142 0.0000 -10715.5972 1518.9864 0.0000 0.0000 1746.3559 -7427.8775 297.7995 -9174.2335 -7395.4386 298.7106 848.1434 910.3960 29597.6964 -175.7994 -102.6261
TCL: Running FEP window  15: Lambda1 0.29999999999999966 Lambda2 0.24999999999999967 [dLambda -0.04999999999999999]
TCL: Setting parameter firsttimestep to 0
TCL: Setting parameter alchLambda to 0.29999999999999966
Info: NONBONDED TABLE R-SQUARED SPACING: 0.0625
Info: NONBONDED TABLE SIZE: 705 POINTS
TCL: Setting parameter alchLambda2 to 0.24999999999999967
Info: NONBONDED TABLE R-SQUARED SPACING: 0.0625
Info: NONBONDED TABLE SIZE: 705 POINTS
TCL: Running for 1500000 steps
ETITLE: TS BOND ANGLE DIHED IMPRP ELECT VDW BOUNDARY MISC KINETIC TOTAL TEMP POTENTIAL TOTALAVG TEMPAVG PRESSURE GPRESSURE VOLUME PRESSAVG GPRESSAVG
ENERGY: 0 2.6588 13.9044 5.8142 0.0000 -10715.5971 1519.4336 0.0000 0.0000 1745.4729 -7428.3131 297.6489 -9173.7860 -7428.3131 297.6489 820.8692 904.9442 29597.6964 820.8692 904.9442
ENERGY: 300000 1.9344 20.1459 5.0470 0.0000 -10616.6129 1411.1007 0.0000 0.0000 1785.5104 -7392.8746 304.4763 -9178.3850 -7413.4446 301.1355 -263.1278 -242.7721 30606.7263 6.4027 61.2501
ENERGY: 600000 3.9204 17.7621 6.4293 0.0000 -10612.1938 1424.6123 0.0000 0.0000 1733.4789 -7425.9907 295.6036 -9159.4696 -7407.1658 301.0176 -227.7692 -128.9367 30416.9917 -9.3362 71.4587
ENERGY: 900000 4.6118 14.6014 4.7711 0.0000 -10617.0581 1438.0067 0.0000 0.0000 1789.8308 -7365.2362 305.2131 -9155.0670 -7404.8591 302.4866 14.7392 51.4312 30285.4997 21.9901 94.0820
ENERGY: 1200000 2.7149 18.3585 7.7900 0.0000 -10488.2868 1359.3276 0.0000 0.0000 1813.5271 -7286.5687 309.2539 -9100.0958 -7405.5281 302.4569 -320.6832 -347.9209 30373.4513 -2.2081 61.8228
ENERGY: 1500000 3.9842 13.5729 7.5008 0.0000 -10616.3071 1433.7947 0.0000 0.0000 1748.5968 -7408.8578 298.1816 -9157.4545 -7409.1385 302.0771 -52.3276 -3.8284 30008.3999 -25.3179 43.4084
TCL: Running FEP window  16: Lambda1 0.24999999999999967 Lambda2 0.19999999999999968 [dLambda -0.04999999999999999]
TCL: Setting parameter firsttimestep to 0
TCL: Setting parameter alchLambda to 0.24999999999999967
Info: NONBONDED TABLE R-SQUARED SPACING: 0.0625
Info: NONBONDED TABLE SIZE: 705 POINTS
TCL: Setting parameter alchLambda2 to 0.19999999999999968
Info: NONBONDED TABLE R-SQUARED SPACING: 0.0625
Info: NONBONDED TABLE SIZE: 705 POINTS
TCL: Running for 1500000 steps
ETITLE: TS BOND ANGLE DIHED IMPRP ELECT VDW BOUNDARY MISC KINETIC TOTAL TEMP POTENTIAL TOTALAVG TEMPAVG PRESSURE GPRESSURE VOLUME PRESSAVG GPRESSAVG
ENERGY: 0 3.9842 13.5729 7.5008 0.0000 -10616.3061 1434.2656 0.0000 0.0000 1747.7167 -7409.2658 298.0315 -9156.9826 -7409.2658 298.0315 -82.6619 -5.4717 30008.3999 -82.6619 -5.4717
ENERGY: 300000 1.8132 14.7663 5.4466 0.0000 -10694.1320 1462.5766 0.0000 0.0000 1718.2037 -7491.3256 292.9988 -9209.5293 -7442.7093 296.4062 260.6060 296.3792 29979.7230 46.4764 108.0607
ENERGY: 600000 2.3707 13.6621 4.9353 0.0000 -10559.6456 1431.2309 0.0000 0.0000 1726.3709 -7381.0756 294.3915 -9107.4465 -7424.5692 297.9111 310.9602 309.2116 29963.6469 146.8998 205.5060
ENERGY: 900000 2.4942 14.3242 5.2403 0.0000 -10613.3040 1449.2440 0.0000 0.0000 1746.6966 -7395.3047 297.8576 -9142.0013 -7415.5441 298.6360 193.5503 225.1828 30130.3818 113.3282 177.3138
ENERGY: 1200000 3.6625 10.8161 6.9431 0.0000 -10584.9778 1404.6403 0.0000 0.0000 1708.0883 -7450.8275 291.2738 -9158.9157 -7415.3426 297.7227 -264.1403 -191.8154 30162.3808 116.9315 181.9583
ENERGY: 1500000 1.5154 10.4044 5.8971 0.0000 -10708.1077 1375.7460 0.0000 0.0000 1737.3788 -7577.1660 296.2686 -9314.5448 -7412.3693 298.5108 -527.7481 -542.4074 29608.7277 8.0882 66.9218
TCL: Running FEP window  17: Lambda1 0.19999999999999968 Lambda2 0.1499999999999997 [dLambda -0.04999999999999999]
TCL: Setting parameter firsttimestep to 0
TCL: Setting parameter alchLambda to 0.19999999999999968
Info: NONBONDED TABLE R-SQUARED SPACING: 0.0625
Info: NONBONDED TABLE SIZE: 705 POINTS
TCL: Setting parameter alchLambda2 to 0.1499999999999997
Info: NONBONDED TABLE R-SQUARED SPACING: 0.0625
Info: NONBONDED TABLE SIZE: 705 POINTS
TCL: Running for 1500000 steps
ETITLE: TS BOND ANGLE DIHED IMPRP ELECT VDW BOUNDARY MISC KINETIC TOTAL TEMP POTENTIAL TOTALAVG TEMPAVG PRESSURE GPRESSURE VOLUME PRESSAVG GPRESSAVG
ENERGY: 0 1.5154 10.4044 5.8971 0.0000 -10708.1084 1375.8324 0.0000 0.0000 1736.4906 -7577.9685 296.1172 -9314.4591 -7577.9685 296.1172 -631.2506 -545.8481 29608.7277 -631.2506 -545.8481
ENERGY: 300000 1.8714 16.6576 5.2135 0.0000 -10484.3203 1355.6706 0.0000 0.0000 1724.6290 -7380.2783 294.0945 -9104.9072 -7444.8443 300.6680 -477.7544 -429.2940 30207.0461 -318.0452 -262.0078
ENERGY: 600000 5.1093 9.3889 5.4713 0.0000 -10651.8591 1404.0444 0.0000 0.0000 1741.6816 -7486.1636 297.0024 -9227.8452 -7432.1263 300.3555 -481.2380 -470.3434 30140.2122 -186.6644 -114.7264
ENERGY: 900000 5.7954 13.5795 5.4547 0.0000 -10694.6634 1493.7183 0.0000 0.0000 1711.6185 -7464.4970 291.8758 -9176.1155 -7421.0660 299.5310 209.7780 265.7097 30087.3853 -173.4735 -100.1280
ENERGY: 1200000 2.3117 14.0409 5.9175 0.0000 -10661.9702 1478.8478 0.0000 0.0000 1714.7097 -7446.1426 292.4030 -9160.8524 -7421.2223 299.1060 305.6532 378.9876 30199.6920 -34.2782 38.8500
ENERGY: 1500000 2.5074 14.8114 7.0603 0.0000 -10629.3531 1455.4485 0.0000 0.0000 1752.1961 -7397.3293 298.7954 -9149.5254 -7417.7360 299.6731 148.7848 211.4265 30326.8267 -28.5965 43.6310
TCL: Running FEP window  18: Lambda1 0.1499999999999997 Lambda2 0.09999999999999969 [dLambda -0.05 ]
TCL: Setting parameter firsttimestep to 0
TCL: Setting parameter alchLambda to 0.1499999999999997
Info: NONBONDED TABLE R-SQUARED SPACING: 0.0625
Info: NONBONDED TABLE SIZE: 705 POINTS
TCL: Setting parameter alchLambda2 to 0.09999999999999969
Info: NONBONDED TABLE R-SQUARED SPACING: 0.0625
Info: NONBONDED TABLE SIZE: 705 POINTS
TCL: Running for 1500000 steps
ETITLE: TS BOND ANGLE DIHED IMPRP ELECT VDW BOUNDARY MISC KINETIC TOTAL TEMP POTENTIAL TOTALAVG TEMPAVG PRESSURE GPRESSURE VOLUME PRESSAVG GPRESSAVG
ENERGY: 0 2.5074 14.8114 7.0603 0.0000 -10629.3546 1456.1698 0.0000 0.0000 1751.3168 -7397.4889 298.6454 -9148.8057 -7397.4889 298.6454 127.9528 212.7838 30326.8267 127.9528 212.7838
ENERGY: 300000 2.1659 20.2395 5.2541 0.0000 -10515.4844 1371.2765 0.0000 0.0000 1739.1133 -7377.4351 296.5644 -9116.5484 -7393.2209 298.8510 -536.9546 -436.7152 30254.3820 17.9293 79.1159
ENERGY: 600000 5.1885 16.3178 5.0457 0.0000 -10622.2785 1461.2325 0.0000 0.0000 1810.0776 -7324.4164 308.6657 -9134.4940 -7389.0574 299.7642 200.3412 248.2889 30132.8382 -23.6662 36.5552
ENERGY: 900000 4.8479 11.3124 6.6771 0.0000 -10427.8209 1278.2419 0.0000 0.0000 1757.4053 -7369.3363 299.6837 -9126.7415 -7390.8620 299.6923 -1078.1484 -1032.8924 30034.4322 -85.3748 -30.0910
ENERGY: 1200000 1.7649 12.7674 6.7617 0.0000 -10582.6477 1436.5405 0.0000 0.0000 1721.9440 -7402.8692 293.6366 -9124.8132 -7388.8141 299.5531 194.3721 231.9405 30027.0854 -78.5054 -28.4545
ENERGY: 1500000 2.2342 17.4426 5.6815 0.0000 -10605.5701 1422.3802 0.0000 0.0000 1739.5275 -7418.3041 296.6351 -9157.8316 -7395.4044 299.6698 4.9246 28.6058 30076.2854 -101.5248 -50.9266
TCL: Running FEP window  19: Lambda1 0.09999999999999969 Lambda2 0.049999999999999684 [dLambda -0.05 ]
TCL: Setting parameter firsttimestep to 0
TCL: Setting parameter alchLambda to 0.09999999999999969
Info: NONBONDED TABLE R-SQUARED SPACING: 0.0625
Info: NONBONDED TABLE SIZE: 705 POINTS
TCL: Setting parameter alchLambda2 to 0.049999999999999684
Info: NONBONDED TABLE R-SQUARED SPACING: 0.0625
Info: NONBONDED TABLE SIZE: 705 POINTS
TCL: Running for 1500000 steps
ETITLE: TS BOND ANGLE DIHED IMPRP ELECT VDW BOUNDARY MISC KINETIC TOTAL TEMP POTENTIAL TOTALAVG TEMPAVG PRESSURE GPRESSURE VOLUME PRESSAVG GPRESSAVG
ENERGY: 0 2.2342 17.4426 5.6815 0.0000 -10605.5714 1422.0465 0.0000 0.0000 1738.6422 -7419.5243 296.4841 -9158.1666 -7419.5243 296.4841 -47.0777 22.7217 30076.2854 -47.0777 22.7217
ENERGY: 300000 3.0807 17.8063 6.9199 0.0000 -10533.9087 1301.9861 0.0000 0.0000 1796.6710 -7407.4446 306.3795 -9204.1156 -7461.7224 297.1459 -1227.8555 -1178.4633 30290.0932 -627.7525 -574.7268
ENERGY: 600000 3.5824 12.9773 4.8611 0.0000 -10569.7291 1363.0455 0.0000 0.0000 1801.9583 -7383.3046 307.2811 -9185.2629 -7425.4455 298.3438 -610.2190 -547.8763 30103.8960 -516.7460 -463.0626
ENERGY: 900000 5.2333 13.0664 5.5698 0.0000 -10631.6640 1416.2737 0.0000 0.0000 1787.2426 -7404.2783 304.7717 -9191.5210 -7414.5478 300.0195 -386.1917 -308.0010 30311.5939 -366.7585 -305.2316
ENERGY: 1200000 1.2652 21.3081 4.7860 0.0000 -10675.1564 1459.0281 0.0000 0.0000 1772.4312 -7416.3378 302.2460 -9188.7690 -7415.9766 299.9168 -78.2435 -99.4610 30277.4811 -303.2326 -239.3755
ENERGY: 1500000 4.5583 14.3199 5.4055 0.0000 -10513.0909 1422.1951 0.0000 0.0000 1809.7593 -7256.8528 308.6114 -9066.6121 -7396.2856 300.5311 -54.2988 -40.2438 30752.1328 -252.0300 -193.5010
TCL: Running FEP window  20: Lambda1 0.049999999999999684 Lambda2 0.0    [dLambda -0.049999999999999684]
TCL: Setting parameter firsttimestep to 0
TCL: Setting parameter alchLambda to 0.049999999999999684
Info: NONBONDED TABLE R-SQUARED SPACING: 0.0625
Info: NONBONDED TABLE SIZE: 705 POINTS
TCL: Setting parameter alchLambda2 to 0.0
Info: NONBONDED TABLE R-SQUARED SPACING: 0.0625
Info: NONBONDED TABLE SIZE: 705 POINTS
TCL: Running for 1500000 steps
ETITLE: TS BOND ANGLE DIHED IMPRP ELECT VDW BOUNDARY MISC KINETIC TOTAL TEMP POTENTIAL TOTALAVG TEMPAVG PRESSURE GPRESSURE VOLUME PRESSAVG GPRESSAVG
ENERGY: 0 4.5583 14.3199 5.4055 0.0000 -10513.0909 1422.3455 0.0000 0.0000 1808.8754 -7257.5864 308.4607 -9066.4617 -7257.5864 308.4607 -128.2225 -45.7495 30752.1328 -128.2225 -45.7495
ENERGY: 300000 4.5153 10.7451 7.8237 0.0000 -10749.4337 1506.9603 0.0000 0.0000 1785.3116 -7434.0777 304.4424 -9219.3893 -7365.1098 303.7095 539.2957 598.1271 29821.6966 -123.2718 -72.1251
ENERGY: 600000 2.6637 14.7755 7.0941 0.0000 -10651.4243 1401.9637 0.0000 0.0000 1731.3767 -7493.5506 295.2451 -9224.9272 -7398.6795 302.0168 -282.9448 -234.8504 29707.6758 -102.7054 -46.8930
ENERGY: 900000 1.7650 15.1905 5.9133 0.0000 -10683.9902 1452.5391 0.0000 0.0000 1838.0593 -7370.5229 313.4373 -9208.5822 -7407.6370 302.8155 -96.3485 -39.9422 30138.3576 -47.4665 13.6305
ENERGY: 1200000 4.1461 15.4231 6.6245 0.0000 -10690.3753 1452.2841 0.0000 0.0000 1787.9497 -7423.9478 304.8923 -9211.8975 -7417.7254 302.2576 -143.2545 -77.8794 30268.7256 37.9634 97.0687
ENERGY: 1500000 2.1013 12.4911 5.7380 0.0000 -10528.6500 1377.8449 0.0000 0.0000 1798.6189 -7331.8557 306.7117 -9130.4746 -7409.9185 302.6173 -390.5543 -325.6031 30272.3382 6.1621 71.3905
TCL: Exiting due to exit command.
