Info: SIMULATION PARAMETERS:
Info: TIMESTEP               2
Info: NUMBER OF STEPS        0
Info: STEPS PER CYCLE        10
Info: PERIODIC CELL BASIS 1  36.9303 0 0
Info: PERIODIC CELL BASIS 2  0 29.6936 0
Info: PERIODIC CELL BASIS 3  0 0 27.8669
Info: PERIODIC CELL CENTER   0 0 0
Info: WRAPPING WATERS AROUND PERIODIC BOUNDARIES ON OUTPUT.
Info: WRAPPING ALL CLUSTERS AROUND PERIODIC BOUNDARIES ON OUTPUT.
Info: FIRST LDB TIMESTEP     50
Info: LAST LDB TIMESTEP     -1
Info: HOM BACKGROUND SCALING 1
Info: PME BACKGROUND SCALING 1
Info: MIN ATOMS PER PATCH    40
Info: EMPTY PATCH LOAD       40 ATOMS
Info: VELOCITY FILE          mobley_7375018_equil.vel
Info: CENTER OF MASS MOVING INITIALLY? NO
Info: DIELECTRIC             1
Info: EXCLUDE                SCALED ONE-FOUR
Info: 1-4 ELECTROSTATICS SCALED BY 0.833333
Info: MODIFIED 1-4 VDW PARAMETERS WILL BE USED
Info: DCD FILENAME           mobley_7375018_prod.dcd
Info: DCD FREQUENCY          100000
Info: DCD FIRST STEP         100000
Info: DCD FILE WILL CONTAIN UNIT CELL DATA
Info: XST FILENAME           mobley_7375018_prod.xst
Info: XST FREQUENCY          100000
Info: NO VELOCITY DCD OUTPUT
Info: NO FORCE DCD OUTPUT
Info: OUTPUT FILENAME        mobley_7375018_prod
Info: BINARY OUTPUT FILES WILL BE USED
Info: RESTART FILENAME       mobley_7375018_prod.restart
Info: RESTART FREQUENCY      100000
Info: BINARY RESTART FILES WILL BE USED
Info: CUTOFF                 9
Info: PAIRLIST DISTANCE      11
Info: PAIRLIST SHRINK RATE   0.01
Info: PAIRLIST GROW RATE     0.01
Info: PAIRLIST TRIGGER       0.3
Info: PAIRLISTS PER CYCLE    2
Info: PAIRLISTS ENABLED
Info: MARGIN                 2
Info: HYDROGEN GROUP CUTOFF  2.5
Info: PATCH DIMENSION        15.5
Info: ENERGY OUTPUT STEPS    100000
Info: ENERGY EVALUATION STEPS    100000
Info: OUTPUT ENERGY PRECISION 4
Info: CROSSTERM ENERGY INCLUDED IN DIHEDRAL
Info: TIMING OUTPUT STEPS    1000000
Info: PRESSURE OUTPUT STEPS  100000
Info: ALCHEMICAL FEP ON
Info: FEP CURRENT LAMBDA VALUE     0
Info: FEP COMPARISON LAMBDA VALUE  0.05
Info: FEP INTRA-ALCHEMICAL NON-BONDED INTERACTIONS WILL BE RETAINED
Info: FEP INTRA-ALCHEMICAL BONDED INTERACTIONS WILL BE RETAINED
Info: FEP VDW SHIFTING COEFFICIENT 5
Info: FEP ELEC. ACTIVE FOR ANNIHILATED PARTICLES BETWEEN LAMBDA = 0 AND LAMBDA = 0.5
Info: FEP ELEC. ACTIVE FOR EXNIHILATED PARTICLES BETWEEN LAMBDA = 0.5 AND LAMBDA = 1
Info: FEP VDW ACTIVE FOR ANNIHILATED PARTICLES BETWEEN LAMBDA = 0 AND LAMBDA = 1
Info: FEP VDW ACTIVE FOR EXNIHILATED PARTICLES BETWEEN LAMBDA = 0 AND LAMBDA = 1
Info: FEP BOND ACTIVE FOR ANNIHILATED PARTICLES BETWEEN LAMBDA = 1 AND LAMBDA = 1
Info: FEP BOND ACTIVE FOR EXNIHILATED PARTICLES BETWEEN LAMBDA = 0 AND LAMBDA = 0
Info: LANGEVIN DYNAMICS ACTIVE
Info: LANGEVIN TEMPERATURE   300
Info: LANGEVIN USING BBK INTEGRATOR
Info: LANGEVIN DAMPING COEFFICIENT IS 1 INVERSE PS
Info: LANGEVIN DYNAMICS APPLIED TO HYDROGENS
Info: LANGEVIN PISTON PRESSURE CONTROL ACTIVE
Info:        TARGET PRESSURE IS 1.01325 BAR
Info:     OSCILLATION PERIOD IS 50 FS
Info:             DECAY TIME IS 25 FS
Info:     PISTON TEMPERATURE IS 300 K
Info:       PRESSURE CONTROL IS GROUP-BASED
Info:    INITIAL STRAIN RATE IS 8.17515e-05 8.17515e-05 8.17515e-05
Info:       CELL FLUCTUATION IS ISOTROPIC
Info: PARTICLE MESH EWALD (PME) ACTIVE
Info: PME TOLERANCE               1e-06
Info: PME EWALD COEFFICIENT       0.348832
Info: PME INTERPOLATION ORDER     4
Info: PME GRID DIMENSIONS         40 32 28
Info: PME MAXIMUM GRID SPACING    1
Info: PME CALCULATION WILL BE PERFORMED ON GPU
Info: FULL ELECTROSTATIC EVALUATION FREQUENCY      2
Info: USING VERLET I (r-RESPA) MTS SCHEME.
Info: C1 SPLITTING OF LONG RANGE ELECTROSTATICS
Info: PLACING ATOMS IN PATCHES BY HYDROGEN GROUPS
Info: RIGID BONDS TO HYDROGEN : ALL
Info:         ERROR TOLERANCE : 1e-08
Info:          MAX ITERATIONS : 100
Info: RIGID WATER USING SETTLE ALGORITHM
Info: RANDOM NUMBER SEED     1744095854
Info: USE HYDROGEN BONDS?    NO
Info: Using AMBER format force field!
Info: AMBER PARM FILE        mobley_7375018.prmtop
Info: COORDINATE PDB         mobley_7375018.pdb
Info: Exclusions will be read from PARM file!
Info: SCNB (VDW SCALING)     2
Info: USING ARITHMETIC MEAN TO COMBINE L-J SIGMA PARAMETERS
Info: BINARY COORDINATES     mobley_7375018_equil.coor
Info: SUMMARY OF PARAMETERS:
Info: 6 BONDS
Info: 7 ANGLES
Info:   7 HARMONIC
Info:   0 COSINE-BASED
Info: 11 DIHEDRAL
Info: 0 IMPROPER
Info: 0 CROSSTERM
Info: 0 VDW
Info: 21 VDW_PAIRS
Info: 0 NBTHOLE_PAIRS
Info: To read alchdata from file: mobley_7375018.pdb
Info: To read alchflag data from column: 5
Info: STRUCTURE SUMMARY:
Info: 2923 ATOMS
Info: 2922 BONDS
Info: 63 ANGLES
Info: 107 DIHEDRALS
Info: 0 IMPROPERS
Info: 0 CROSSTERMS
Info: 3069 EXCLUSIONS
Info: 2911 RIGID BONDS
Info: ALCH: 0 ATOMS TO DISAPPEAR IN FINAL STATE
Info: ALCH: 34 ATOMS TO APPEAR IN FINAL STATE
Info: 5858 DEGREES OF FREEDOM
Info: 975 HYDROGEN GROUPS
Info: 4 ATOMS IN LARGEST HYDROGEN GROUP
Info: 975 MIGRATION GROUPS
Info: 4 ATOMS IN LARGEST MIGRATION GROUP
Info: TOTAL MASS = 17519.7 amu
Info: TOTAL CHARGE = -0.000299994 e
Info: MASS DENSITY = 0.952032 g/cm^3
Info: ATOM DENSITY = 0.0956522 atoms/A^3
Info: ADDED 0 IMPLICIT EXCLUSIONS
Info: NONBONDED TABLE R-SQUARED SPACING: 0.0625
Info: NONBONDED TABLE SIZE: 705 POINTS
Info: REMOVING COM VELOCITY 0.0400343 -0.102039 0.0578974
Info: Use 3D box decompostion in PME FFT.
Info: Updated CUDA force table with 4096 elements.
Info: Updated CUDA LJ table with 6 x 6 elements.
Info: Found 37 unique exclusion lists needing 168 bytes
TCL: Running for 1500000 steps
ETITLE: TS BOND ANGLE DIHED IMPRP ELECT VDW BOUNDARY MISC KINETIC TOTAL TEMP POTENTIAL TOTALAVG TEMPAVG PRESSURE GPRESSURE VOLUME PRESSAVG GPRESSAVG
ENERGY: 0 3.7799 16.9328 12.4499 0.0000 -10498.5082 1382.3319 0.0000 0.0000 1743.6495 -7339.3642 299.5713 -9083.0136 -7339.3642 299.5713 -658.9886 -577.0473 30558.6417 -658.9886 -577.0473
ENERGY: 300000 5.5111 20.5855 10.0815 0.0000 -10497.7288 1363.6023 0.0000 0.0000 1778.8313 -7319.1171 305.6158 -9097.9483 -7293.2884 303.4175 -612.6316 -557.6422 29793.7617 -165.4442 -108.4347
ENERGY: 600000 2.3628 16.4452 10.1215 0.0000 -10624.1182 1497.5599 0.0000 0.0000 1774.1028 -7323.5260 304.8034 -9097.6288 -7281.7858 303.8759 575.3311 634.4900 29456.6088 -75.8294 -26.2014
ENERGY: 900000 3.1821 17.8694 7.7553 0.0000 -10545.1355 1415.9246 0.0000 0.0000 1726.0618 -7374.3424 296.5496 -9100.4042 -7294.2725 301.8005 112.0181 156.1342 29634.8580 55.9735 99.1397
ENERGY: 1200000 3.7841 12.9396 8.1590 0.0000 -10623.7399 1422.1215 0.0000 0.0000 1778.9962 -7397.7394 305.6441 -9176.7356 -7304.5302 302.6737 -430.8148 -350.4256 29810.0675 35.4783 84.9632
ENERGY: 1500000 1.7627 14.0400 9.4736 0.0000 -10533.1431 1405.6064 0.0000 0.0000 1772.3840 -7329.8765 304.5081 -9102.2605 -7307.3438 302.7933 162.0653 226.5597 29456.8735 58.1669 109.0246
TCL: Running FEP window   2: Lambda1 0.05   Lambda2 0.1    [dLambda 0.05  ]
TCL: Setting parameter firsttimestep to 0
TCL: Setting parameter alchLambda to 0.05
Info: NONBONDED TABLE R-SQUARED SPACING: 0.0625
Info: NONBONDED TABLE SIZE: 705 POINTS
TCL: Setting parameter alchLambda2 to 0.1
Info: NONBONDED TABLE R-SQUARED SPACING: 0.0625
Info: NONBONDED TABLE SIZE: 705 POINTS
TCL: Running for 1500000 steps
ETITLE: TS BOND ANGLE DIHED IMPRP ELECT VDW BOUNDARY MISC KINETIC TOTAL TEMP POTENTIAL TOTALAVG TEMPAVG PRESSURE GPRESSURE VOLUME PRESSAVG GPRESSAVG
ENERGY: 0 1.7627 14.0400 9.4736 0.0000 -10533.1417 1407.0962 0.0000 0.0000 1771.5141 -7329.2552 304.3586 -9100.7693 -7329.2552 304.3586 164.9105 233.6045 29456.8735 164.9105 233.6045
ENERGY: 300000 2.7656 11.8256 7.9382 0.0000 -10419.8395 1387.7760 0.0000 0.0000 1733.8012 -7275.7330 297.8793 -9009.5342 -7339.7895 296.5000 -342.1629 -300.8536 30455.7168 -96.3275 -52.5432
ENERGY: 600000 6.5611 17.3386 9.7544 0.0000 -10347.6191 1333.2795 0.0000 0.0000 1727.6168 -7253.0686 296.8168 -8980.6854 -7309.1977 297.2514 -697.5512 -585.4839 30014.0809 -75.5009 -11.7459
ENERGY: 900000 2.5685 15.5007 8.6898 0.0000 -10700.0419 1451.4641 0.0000 0.0000 1775.8120 -7446.0068 305.0971 -9221.8188 -7324.8304 299.3155 161.1684 264.9949 29039.7134 7.9467 71.1565
ENERGY: 1200000 3.1325 15.3468 8.9089 0.0000 -10590.6102 1440.7397 0.0000 0.0000 1758.5885 -7363.8939 302.1379 -9122.4824 -7329.1066 300.7603 96.4345 184.1483 29628.5694 125.7964 187.6953
ENERGY: 1500000 4.8736 19.1591 7.7643 0.0000 -10433.4095 1408.2942 0.0000 0.0000 1696.4072 -7296.9111 291.4547 -8993.3183 -7331.9864 299.9296 100.6873 167.2438 29798.9459 158.8344 226.5361
TCL: Running FEP window   3: Lambda1 0.1    Lambda2 0.15000000000000002 [dLambda 0.05000000000000002]
TCL: Setting parameter firsttimestep to 0
TCL: Setting parameter alchLambda to 0.1
Info: NONBONDED TABLE R-SQUARED SPACING: 0.0625
Info: NONBONDED TABLE SIZE: 705 POINTS
TCL: Setting parameter alchLambda2 to 0.15000000000000002
Info: NONBONDED TABLE R-SQUARED SPACING: 0.0625
Info: NONBONDED TABLE SIZE: 705 POINTS
TCL: Running for 1500000 steps
ETITLE: TS BOND ANGLE DIHED IMPRP ELECT VDW BOUNDARY MISC KINETIC TOTAL TEMP POTENTIAL TOTALAVG TEMPAVG PRESSURE GPRESSURE VOLUME PRESSAVG GPRESSAVG
ENERGY: 0 4.8736 19.1591 7.7643 0.0000 -10433.4085 1410.4886 0.0000 0.0000 1695.5162 -7295.6068 291.3017 -8991.1230 -7295.6068 291.3017 94.5462 178.1868 29798.9459 94.5462 178.1868
ENERGY: 300000 7.9288 16.2018 9.1676 0.0000 -10619.1502 1453.7630 0.0000 0.0000 1755.3112 -7376.7778 301.5749 -9132.0890 -7356.9766 298.6394 237.7415 266.0440 29408.0369 46.9055 95.2790
ENERGY: 600000 6.0450 12.8652 9.0269 0.0000 -10621.0638 1473.3360 0.0000 0.0000 1717.5709 -7402.2198 295.0908 -9119.7907 -7356.8053 300.6799 648.0992 719.8455 29119.7131 -26.2619 39.1215
ENERGY: 900000 7.2747 22.5259 10.2788 0.0000 -10570.8818 1408.4276 0.0000 0.0000 1739.7306 -7382.6443 298.8980 -9122.3748 -7363.8554 298.9332 -63.2808 -32.6999 29655.8110 9.8385 76.1326
ENERGY: 1200000 4.9496 12.5753 8.9583 0.0000 -10626.7231 1582.4740 0.0000 0.0000 1801.1243 -7216.6417 309.4459 -9017.7660 -7354.5367 299.3162 1804.1934 1877.4843 29565.2686 213.8230 281.2138
ENERGY: 1500000 1.7335 17.4599 9.5356 0.0000 -10559.3499 1451.8819 0.0000 0.0000 1749.6950 -7329.0439 300.6100 -9078.7390 -7350.5493 299.3303 222.3279 300.5762 30134.6109 224.4059 292.8435
TCL: Running FEP window   4: Lambda1 0.15000000000000002 Lambda2 0.2    [dLambda 0.04999999999999999]
TCL: Setting parameter firsttimestep to 0
TCL: Setting parameter alchLambda to 0.15000000000000002
Info: NONBONDED TABLE R-SQUARED SPACING: 0.0625
Info: NONBONDED TABLE SIZE: 705 POINTS
TCL: Setting parameter alchLambda2 to 0.2
Info: NONBONDED TABLE R-SQUARED SPACING: 0.0625
Info: NONBONDED TABLE SIZE: 705 POINTS
TCL: Running for 1500000 steps
ETITLE: TS BOND ANGLE DIHED IMPRP ELECT VDW BOUNDARY MISC KINETIC TOTAL TEMP POTENTIAL TOTALAVG TEMPAVG PRESSURE GPRESSURE VOLUME PRESSAVG GPRESSAVG
ENERGY: 0 1.7335 17.4599 9.5356 0.0000 -10559.3502 1455.6028 0.0000 0.0000 1748.8125 -7326.2058 300.4583 -9075.0184 -7326.2058 300.4583 250.0685 319.8978 30134.6109 250.0685 319.8978
ENERGY: 300000 4.0294 18.8698 9.8401 0.0000 -10432.9982 1369.5455 0.0000 0.0000 1773.0942 -7257.6192 304.6301 -9030.7133 -7288.4543 304.0128 -403.7817 -303.9579 30129.1110 -96.4076 -14.7882
ENERGY: 600000 3.6961 16.4434 10.0137 0.0000 -10500.1171 1412.1579 0.0000 0.0000 1711.0908 -7346.7153 293.9775 -9057.8060 -7305.5948 300.9238 -32.4121 -14.5412 29549.0255 58.4725 122.6083
ENERGY: 900000 5.3644 15.4121 10.4662 0.0000 -10490.3909 1364.1504 0.0000 0.0000 1768.3688 -7326.6290 303.8183 -9094.9978 -7317.3599 300.7300 -609.4533 -572.7060 29894.0323 -147.3712 -97.1827
ENERGY: 1200000 2.7272 15.8270 11.4175 0.0000 -10527.1215 1401.6457 0.0000 0.0000 1779.3090 -7316.1952 305.6978 -9095.5041 -7323.4910 299.6726 -57.8620 -8.3068 29463.3172 -202.5462 -151.6340
ENERGY: 1500000 1.5966 14.1916 9.6962 0.0000 -10486.5722 1367.9390 0.0000 0.0000 1820.9969 -7272.1519 312.8601 -9093.1488 -7320.4706 301.2361 -255.6220 -197.8209 29639.0746 -125.8337 -73.6519
TCL: Running FEP window   5: Lambda1 0.2    Lambda2 0.25   [dLambda 0.04999999999999999]
TCL: Setting parameter firsttimestep to 0
TCL: Setting parameter alchLambda to 0.2
Info: NONBONDED TABLE R-SQUARED SPACING: 0.0625
Info: NONBONDED TABLE SIZE: 705 POINTS
TCL: Setting parameter alchLambda2 to 0.25
Info: NONBONDED TABLE R-SQUARED SPACING: 0.0625
Info: NONBONDED TABLE SIZE: 705 POINTS
TCL: Running for 1500000 steps
ETITLE: TS BOND ANGLE DIHED IMPRP ELECT VDW BOUNDARY MISC KINETIC TOTAL TEMP POTENTIAL TOTALAVG TEMPAVG PRESSURE GPRESSURE VOLUME PRESSAVG GPRESSAVG
ENERGY: 0 1.5966 14.1916 9.6962 0.0000 -10486.5715 1368.9230 0.0000 0.0000 1820.1243 -7272.0398 312.7102 -9092.1641 -7272.0398 312.7102 -280.5357 -184.7008 29639.0746 -280.5357 -184.7008
ENERGY: 300000 1.7188 18.7493 11.8453 0.0000 -10517.4218 1434.5447 0.0000 0.0000 1733.9738 -7316.5899 297.9089 -9050.5637 -7323.6008 304.4288 91.2959 103.2339 30083.6952 111.3016 163.0591
ENERGY: 600000 3.6395 13.6967 10.5740 0.0000 -10280.1475 1247.5861 0.0000 0.0000 1778.7666 -7225.8846 305.6047 -9004.6512 -7316.2538 301.7561 -1306.4164 -1239.1423 30352.9750 -132.8483 -74.3619
ENERGY: 900000 2.0883 17.6093 9.6340 0.0000 -10526.8418 1438.0472 0.0000 0.0000 1699.0480 -7360.4150 291.9084 -9059.4630 -7333.1918 299.6946 81.0946 153.3145 30223.9955 11.7284 78.1963
ENERGY: 1200000 2.3796 13.9679 7.9899 0.0000 -10616.5913 1452.4618 0.0000 0.0000 1775.4383 -7364.3539 305.0328 -9139.7922 -7321.8102 301.9048 20.6678 70.0356 29958.6992 -0.9585 69.2041
ENERGY: 1500000 4.9672 17.4015 8.4544 0.0000 -10488.6087 1390.9662 0.0000 0.0000 1788.7404 -7278.0790 307.3182 -9066.8195 -7315.7623 301.8786 -198.5187 -146.6999 30091.3818 5.6752 71.8248
TCL: Running FEP window   6: Lambda1 0.25   Lambda2 0.3    [dLambda 0.04999999999999999]
TCL: Setting parameter firsttimestep to 0
TCL: Setting parameter alchLambda to 0.25
Info: NONBONDED TABLE R-SQUARED SPACING: 0.0625
Info: NONBONDED TABLE SIZE: 705 POINTS
TCL: Setting parameter alchLambda2 to 0.3
Info: NONBONDED TABLE R-SQUARED SPACING: 0.0625
Info: NONBONDED TABLE SIZE: 705 POINTS
TCL: Running for 1500000 steps
ETITLE: TS BOND ANGLE DIHED IMPRP ELECT VDW BOUNDARY MISC KINETIC TOTAL TEMP POTENTIAL TOTALAVG TEMPAVG PRESSURE GPRESSURE VOLUME PRESSAVG GPRESSAVG
ENERGY: 0 4.9672 17.4015 8.4544 0.0000 -10488.6090 1393.3947 0.0000 0.0000 1787.8391 -7276.5521 307.1634 -9064.3912 -7276.5521 307.1634 -197.7274 -126.4838 30091.3818 -197.7274 -126.4838
ENERGY: 300000 3.4923 15.1441 9.4394 0.0000 -10551.4438 1465.8274 0.0000 0.0000 1789.3290 -7268.2115 307.4194 -9057.5406 -7292.4240 305.5014 505.9611 579.1644 29849.4953 439.2930 486.8506
ENERGY: 600000 7.4125 7.9579 10.1421 0.0000 -10593.0879 1435.1531 0.0000 0.0000 1687.8041 -7444.6182 289.9767 -9132.4223 -7324.4698 299.2194 -211.1094 -97.3997 29904.4491 176.1361 228.8633
ENERGY: 900000 1.7858 12.5391 9.2312 0.0000 -10463.6027 1416.0522 0.0000 0.0000 1784.4963 -7239.4981 306.5891 -9023.9944 -7320.5041 299.6913 22.6056 98.6922 30217.6382 166.3689 227.9809
ENERGY: 1200000 3.6535 17.9685 9.5017 0.0000 -10509.8253 1445.9142 0.0000 0.0000 1756.8622 -7275.9252 301.8413 -9032.7874 -7333.8137 299.3866 94.4376 203.2226 30067.5283 116.8966 179.8528
ENERGY: 1500000 5.1921 18.4640 7.5966 0.0000 -10527.5098 1429.0219 0.0000 0.0000 1759.0185 -7308.2166 302.2118 -9067.2351 -7333.2243 300.5928 174.9295 113.4747 29686.1332 120.9301 177.3591
TCL: Running FEP window   7: Lambda1 0.3    Lambda2 0.35   [dLambda 0.04999999999999999]
TCL: Setting parameter firsttimestep to 0
TCL: Setting parameter alchLambda to 0.3
Info: NONBONDED TABLE R-SQUARED SPACING: 0.0625
Info: NONBONDED TABLE SIZE: 705 POINTS
TCL: Setting parameter alchLambda2 to 0.35
Info: NONBONDED TABLE R-SQUARED SPACING: 0.0625
Info: NONBONDED TABLE SIZE: 705 POINTS
TCL: Running for 1500000 steps
ETITLE: TS BOND ANGLE DIHED IMPRP ELECT VDW BOUNDARY MISC KINETIC TOTAL TEMP POTENTIAL TOTALAVG TEMPAVG PRESSURE GPRESSURE VOLUME PRESSAVG GPRESSAVG
ENERGY: 0 5.1921 18.4640 7.5966 0.0000 -10527.5108 1430.1146 0.0000 0.0000 1758.1504 -7307.9931 302.0627 -9066.1435 -7307.9931 302.0627 53.3266 127.9857 29686.1332 53.3266 127.9857
ENERGY: 300000 4.9315 15.3719 8.4726 0.0000 -10531.4209 1439.3739 0.0000 0.0000 1807.8968 -7255.3742 310.6094 -9063.2710 -7260.9948 304.7409 163.0887 217.7862 29964.6190 -249.8062 -214.4881
ENERGY: 600000 3.1596 15.3217 9.2505 0.0000 -10573.7332 1467.6082 0.0000 0.0000 1738.1437 -7340.2495 298.6254 -9078.3932 -7285.5781 301.2379 607.0946 732.1932 29569.1461 -88.1435 -41.6189
ENERGY: 900000 6.1570 16.2906 10.1026 0.0000 -10563.4479 1429.1090 0.0000 0.0000 1810.5780 -7291.2106 311.0701 -9101.7887 -7304.7963 301.0517 -104.7672 -9.5115 30514.0205 -45.6003 7.9243
ENERGY: 1200000 2.9361 15.7707 8.9924 0.0000 -10430.5128 1417.2129 0.0000 0.0000 1784.4286 -7201.1720 306.5774 -8985.6006 -7299.4193 300.8504 -49.1175 -19.8665 30484.6115 -80.3555 -31.3472
ENERGY: 1500000 6.1851 18.1712 11.5919 0.0000 -10622.3993 1543.6755 0.0000 0.0000 1743.5297 -7299.2458 299.5507 -9042.7755 -7306.5881 300.4043 977.0509 1034.9123 29727.5029 -47.9745 3.7374
TCL: Running FEP window   8: Lambda1 0.35   Lambda2 0.39999999999999997 [dLambda 0.04999999999999999]
TCL: Setting parameter firsttimestep to 0
TCL: Setting parameter alchLambda to 0.35
Info: NONBONDED TABLE R-SQUARED SPACING: 0.0625
Info: NONBONDED TABLE SIZE: 705 POINTS
TCL: Setting parameter alchLambda2 to 0.39999999999999997
Info: NONBONDED TABLE R-SQUARED SPACING: 0.0625
Info: NONBONDED TABLE SIZE: 705 POINTS
TCL: Running for 1500000 steps
ETITLE: TS BOND ANGLE DIHED IMPRP ELECT VDW BOUNDARY MISC KINETIC TOTAL TEMP POTENTIAL TOTALAVG TEMPAVG PRESSURE GPRESSURE VOLUME PRESSAVG GPRESSAVG
ENERGY: 0 6.1851 18.1712 11.5919 0.0000 -10622.3984 1546.1025 0.0000 0.0000 1742.6524 -7297.6953 299.4000 -9040.3477 -7297.6953 299.4000 980.6532 1058.0627 29727.5029 980.6532 1058.0627
ENERGY: 300000 2.9788 19.5234 8.4344 0.0000 -10332.0041 1303.8354 0.0000 0.0000 1724.2701 -7272.9620 296.2418 -8997.2321 -7311.3702 299.4378 -495.1127 -503.1919 29965.2052 270.4528 341.3147
ENERGY: 600000 6.1751 18.6716 9.6022 0.0000 -10422.1400 1368.1337 0.0000 0.0000 1710.6337 -7308.9238 293.8990 -9019.5575 -7305.8021 296.8632 -528.1613 -459.8706 29997.1706 -83.3787 -22.5172
ENERGY: 900000 2.6315 16.0548 10.3573 0.0000 -10553.1284 1436.6639 0.0000 0.0000 1704.0124 -7383.4086 292.7614 -9087.4210 -7324.9742 294.6106 77.0823 134.8807 30102.1644 -78.9314 -15.1805
ENERGY: 1200000 2.5083 18.0896 7.2104 0.0000 -10659.1896 1432.5739 0.0000 0.0000 1773.3473 -7425.4601 304.6736 -9198.8074 -7341.2672 296.0417 -311.5314 -218.3748 29916.3991 -65.2418 -0.1514
ENERGY: 1500000 4.6330 16.8794 8.7883 0.0000 -10450.7162 1381.8519 0.0000 0.0000 1720.6889 -7317.8746 295.6265 -9038.5635 -7339.3721 296.4585 -405.7740 -381.1513 30085.9459 -40.2948 24.7093
TCL: Running FEP window   9: Lambda1 0.39999999999999997 Lambda2 0.44999999999999996 [dLambda 0.04999999999999999]
TCL: Setting parameter firsttimestep to 0
TCL: Setting parameter alchLambda to 0.39999999999999997
Info: NONBONDED TABLE R-SQUARED SPACING: 0.0625
Info: NONBONDED TABLE SIZE: 705 POINTS
TCL: Setting parameter alchLambda2 to 0.44999999999999996
Info: NONBONDED TABLE R-SQUARED SPACING: 0.0625
Info: NONBONDED TABLE SIZE: 705 POINTS
TCL: Running for 1500000 steps
ETITLE: TS BOND ANGLE DIHED IMPRP ELECT VDW BOUNDARY MISC KINETIC TOTAL TEMP POTENTIAL TOTALAVG TEMPAVG PRESSURE GPRESSURE VOLUME PRESSAVG GPRESSAVG
ENERGY: 0 4.6330 16.8794 8.7883 0.0000 -10450.7175 1382.5847 0.0000 0.0000 1719.7783 -7318.0538 295.4701 -9037.8321 -7318.0538 295.4701 -436.7273 -368.4890 30085.9459 -436.7273 -368.4890
ENERGY: 300000 2.0703 17.8394 9.8739 0.0000 -10610.7831 1528.9414 0.0000 0.0000 1730.1672 -7321.8909 297.2549 -9052.0581 -7337.2986 294.9593 694.7758 733.0793 30500.0243 176.8031 231.8530
ENERGY: 600000 3.4931 13.3670 9.4788 0.0000 -10371.0390 1352.7960 0.0000 0.0000 1743.0571 -7248.8471 299.4695 -8991.9041 -7307.6066 297.0300 -189.5099 -40.3898 29717.9200 177.8587 243.1991
ENERGY: 900000 2.3637 17.8899 9.8865 0.0000 -10432.1573 1412.2134 0.0000 0.0000 1741.2774 -7248.5264 299.1638 -8989.8038 -7318.1047 296.8495 104.2492 197.6600 30306.8282 48.5005 119.1599
ENERGY: 1200000 1.7177 17.1933 14.9553 0.0000 -10606.1202 1436.2229 0.0000 0.0000 1808.2590 -7327.7721 310.6717 -9136.0311 -7329.6731 297.8176 134.2629 156.9654 29791.5831 103.3071 167.4356
ENERGY: 1500000 3.9593 13.3262 10.3774 0.0000 -10523.6697 1373.9070 0.0000 0.0000 1788.0735 -7334.0263 307.2037 -9122.0998 -7325.4413 299.6657 -537.6359 -504.0702 30040.4335 79.6851 138.1903
TCL: Running FEP window  10: Lambda1 0.44999999999999996 Lambda2 0.49999999999999994 [dLambda 0.04999999999999999]
TCL: Setting parameter firsttimestep to 0
TCL: Setting parameter alchLambda to 0.44999999999999996
Info: NONBONDED TABLE R-SQUARED SPACING: 0.0625
Info: NONBONDED TABLE SIZE: 705 POINTS
TCL: Setting parameter alchLambda2 to 0.49999999999999994
Info: NONBONDED TABLE R-SQUARED SPACING: 0.0625
Info: NONBONDED TABLE SIZE: 705 POINTS
TCL: Running for 1500000 steps
ETITLE: TS BOND ANGLE DIHED IMPRP ELECT VDW BOUNDARY MISC KINETIC TOTAL TEMP POTENTIAL TOTALAVG TEMPAVG PRESSURE GPRESSURE VOLUME PRESSAVG GPRESSAVG
ENERGY: 0 3.9593 13.3262 10.3774 0.0000 -10523.6687 1373.2551 0.0000 0.0000 1787.2275 -7335.5232 307.0583 -9122.7507 -7335.5232 307.0583 -580.8067 -500.5471 30040.4335 -580.8067 -500.5471
ENERGY: 300000 2.8911 21.4122 9.4051 0.0000 -10617.3984 1447.6879 0.0000 0.0000 1751.6046 -7384.3974 300.9381 -9136.0021 -7349.8980 300.3526 323.5922 279.7929 29808.4838 -315.1346 -263.2233
ENERGY: 600000 3.0558 14.1472 8.9901 0.0000 -10588.3190 1450.8596 0.0000 0.0000 1736.9460 -7374.3204 298.4196 -9111.2664 -7333.2367 300.8073 319.7314 373.2838 29852.7358 -290.5490 -220.4322
ENERGY: 900000 3.3801 18.9623 8.7828 0.0000 -10502.6211 1385.6853 0.0000 0.0000 1728.8174 -7356.9934 297.0230 -9085.8107 -7339.1668 299.9719 19.5588 54.0134 29718.0897 -262.4009 -207.3058
ENERGY: 1200000 1.3305 18.7209 11.5597 0.0000 -10414.3105 1294.4486 0.0000 0.0000 1718.7755 -7369.4752 295.2978 -9088.2508 -7342.8238 299.3130 -951.4618 -866.0472 29959.7251 -264.1698 -206.9656
ENERGY: 1500000 3.6111 14.4732 11.2082 0.0000 -10486.9692 1413.9568 0.0000 0.0000 1746.6369 -7297.0831 300.0846 -9043.7200 -7329.8114 299.1071 105.0255 169.1544 29687.5722 -186.1130 -131.5013
TCL: Running FEP window  11: Lambda1 0.49999999999999994 Lambda2 0.5499999999999999 [dLambda 0.04999999999999999]
TCL: Setting parameter firsttimestep to 0
TCL: Setting parameter alchLambda to 0.49999999999999994
Info: NONBONDED TABLE R-SQUARED SPACING: 0.0625
Info: NONBONDED TABLE SIZE: 705 POINTS
TCL: Setting parameter alchLambda2 to 0.5499999999999999
Info: NONBONDED TABLE R-SQUARED SPACING: 0.0625
Info: NONBONDED TABLE SIZE: 705 POINTS
TCL: Running for 1500000 steps
ETITLE: TS BOND ANGLE DIHED IMPRP ELECT VDW BOUNDARY MISC KINETIC TOTAL TEMP POTENTIAL TOTALAVG TEMPAVG PRESSURE GPRESSURE VOLUME PRESSAVG GPRESSAVG
ENERGY: 0 3.6111 14.4732 11.2082 0.0000 -10486.9714 1413.6904 0.0000 0.0000 1745.7476 -7298.2410 299.9318 -9043.9886 -7298.2410 299.9318 98.3705 177.3987 29687.5722 98.3705 177.3987
ENERGY: 300000 2.9325 16.4403 9.0737 0.0000 -10429.4209 1340.2941 0.0000 0.0000 1724.8132 -7335.8671 296.3351 -9060.6803 -7303.4501 297.5720 -650.6064 -538.7553 30033.2910 -99.3654 -39.2730
ENERGY: 600000 3.2622 17.6008 10.1165 0.0000 -10329.5150 1315.8683 0.0000 0.0000 1771.3577 -7211.3094 304.3318 -8982.6671 -7291.4320 300.3110 -793.6180 -749.0326 30774.2070 -294.1460 -233.5209
ENERGY: 900000 2.2915 17.6375 10.0768 0.0000 -10410.8980 1394.9481 0.0000 0.0000 1763.0703 -7222.8738 302.9079 -8985.9441 -7298.7680 301.4660 113.1522 151.2511 30286.7841 -296.2660 -232.1832
ENERGY: 1200000 3.4031 21.3646 10.2672 0.0000 -10483.3663 1330.3588 0.0000 0.0000 1702.7546 -7415.2180 292.5453 -9117.9727 -7309.3473 299.6600 -985.9007 -879.8830 30116.9427 -307.9402 -243.2992
ENERGY: 1500000 2.8125 14.5646 8.5642 0.0000 -10364.1054 1302.7241 0.0000 0.0000 1752.7489 -7282.6912 301.1346 -9035.4401 -7312.0313 299.4668 -800.1189 -755.0763 30352.0410 -341.3974 -273.3472
TCL: Running FEP window  12: Lambda1 0.5499999999999999 Lambda2 0.6    [dLambda 0.050000000000000044]
TCL: Setting parameter firsttimestep to 0
TCL: Setting parameter alchLambda to 0.5499999999999999
Info: NONBONDED TABLE R-SQUARED SPACING: 0.0625
Info: NONBONDED TABLE SIZE: 705 POINTS
TCL: Setting parameter alchLambda2 to 0.6
Info: NONBONDED TABLE R-SQUARED SPACING: 0.0625
Info: NONBONDED TABLE SIZE: 705 POINTS
TCL: Running for 1500000 steps
ETITLE: TS BOND ANGLE DIHED IMPRP ELECT VDW BOUNDARY MISC KINETIC TOTAL TEMP POTENTIAL TOTALAVG TEMPAVG PRESSURE GPRESSURE VOLUME PRESSAVG GPRESSAVG
ENERGY: 0 2.8125 14.5646 8.5642 0.0000 -10364.3264 1303.8856 0.0000 0.0000 1751.8727 -7282.6269 300.9841 -9034.4996 -7282.6269 300.9841 -811.1862 -735.8885 30352.0410 -811.1862 -735.8885
ENERGY: 300000 2.9988 16.0134 7.6785 0.0000 -10501.3746 1330.0833 0.0000 0.0000 1749.1262 -7395.4744 300.5122 -9144.6006 -7342.4184 299.5215 -1114.3733 -971.6169 30333.2907 -352.3119 -263.7905
ENERGY: 600000 4.6662 19.0463 9.7831 0.0000 -10639.7337 1506.7129 0.0000 0.0000 1740.2427 -7359.2825 298.9860 -9099.5252 -7348.7070 300.1820 722.1254 785.7694 29795.4824 -6.3378 78.2217
ENERGY: 900000 3.9084 13.6877 9.6044 0.0000 -10516.4759 1360.7696 0.0000 0.0000 1753.6126 -7374.8932 301.2830 -9128.5058 -7345.2657 301.5341 -342.8202 -321.8658 29949.8427 -134.6762 -59.6174
ENERGY: 1200000 0.6063 19.4275 9.3229 0.0000 -10595.4297 1484.9180 0.0000 0.0000 1769.1193 -7312.0357 303.9472 -9081.1550 -7354.9678 301.7598 684.6626 802.7606 29806.4421 -35.9832 43.5450
ENERGY: 1500000 1.3992 14.7746 8.0319 0.0000 -10395.4774 1338.7431 0.0000 0.0000 1797.7300 -7234.7986 308.8627 -9032.5285 -7338.6117 302.0398 -458.1411 -353.0282 30103.2295 -114.7765 -34.2056
TCL: Running FEP window  13: Lambda1 0.6    Lambda2 0.65   [dLambda 0.050000000000000044]
TCL: Setting parameter firsttimestep to 0
TCL: Setting parameter alchLambda to 0.6
Info: NONBONDED TABLE R-SQUARED SPACING: 0.0625
Info: NONBONDED TABLE SIZE: 705 POINTS
TCL: Setting parameter alchLambda2 to 0.65
Info: NONBONDED TABLE R-SQUARED SPACING: 0.0625
Info: NONBONDED TABLE SIZE: 705 POINTS
TCL: Running for 1500000 steps
ETITLE: TS BOND ANGLE DIHED IMPRP ELECT VDW BOUNDARY MISC KINETIC TOTAL TEMP POTENTIAL TOTALAVG TEMPAVG PRESSURE GPRESSURE VOLUME PRESSAVG GPRESSAVG
ENERGY: 0 1.3992 14.7746 8.0319 0.0000 -10395.4206 1339.8955 0.0000 0.0000 1796.8624 -7234.4571 308.7136 -9031.3194 -7234.4571 308.7136 -421.8966 -322.4813 30103.2295 -421.8966 -322.4813
ENERGY: 300000 3.6073 14.8849 10.0591 0.0000 -10527.1846 1410.2695 0.0000 0.0000 1749.5922 -7338.7716 300.5923 -9088.3637 -7315.0639 299.7971 32.5861 106.0604 30025.8642 -122.6839 -28.6698
ENERGY: 600000 6.6174 15.2233 9.2518 0.0000 -10483.3724 1371.8720 0.0000 0.0000 1665.3133 -7415.0946 286.1126 -9080.4079 -7336.4292 297.4662 -623.4856 -586.4967 30322.5459 -18.0833 53.4400
ENERGY: 900000 4.7291 11.5236 10.5853 0.0000 -10443.5277 1366.3510 0.0000 0.0000 1733.1086 -7317.2301 297.7603 -9050.3387 -7344.0703 298.2842 -601.2644 -609.7575 30607.3342 -26.0226 37.8832
ENERGY: 1200000 2.3943 15.1570 7.3331 0.0000 -10506.4197 1361.6388 0.0000 0.0000 1756.8900 -7363.0065 301.8461 -9119.8965 -7345.1355 298.7850 -836.1041 -773.9202 30649.4855 -5.8597 58.4610
ENERGY: 1500000 2.9172 10.6241 9.7494 0.0000 -10501.0322 1385.4004 0.0000 0.0000 1748.0002 -7344.3409 300.3188 -9092.3411 -7337.3432 299.7739 -201.6122 -181.7691 30024.9010 24.2205 84.0716
TCL: Running FEP window  14: Lambda1 0.65   Lambda2 0.7000000000000001 [dLambda 0.050000000000000044]
TCL: Setting parameter firsttimestep to 0
TCL: Setting parameter alchLambda to 0.65
Info: NONBONDED TABLE R-SQUARED SPACING: 0.0625
Info: NONBONDED TABLE SIZE: 705 POINTS
TCL: Setting parameter alchLambda2 to 0.7000000000000001
Info: NONBONDED TABLE R-SQUARED SPACING: 0.0625
Info: NONBONDED TABLE SIZE: 705 POINTS
TCL: Running for 1500000 steps
ETITLE: TS BOND ANGLE DIHED IMPRP ELECT VDW BOUNDARY MISC KINETIC TOTAL TEMP POTENTIAL TOTALAVG TEMPAVG PRESSURE GPRESSURE VOLUME PRESSAVG GPRESSAVG
ENERGY: 0 2.9172 10.6241 9.7494 0.0000 -10501.5401 1385.1505 0.0000 0.0000 1747.1409 -7345.9580 300.1711 -9093.0989 -7345.9580 300.1711 -236.3935 -167.4857 30024.9010 -236.3935 -167.4857
ENERGY: 300000 4.8096 13.9547 8.8431 0.0000 -10364.9639 1338.8449 0.0000 0.0000 1704.5603 -7293.9514 292.8555 -8998.5117 -7315.3633 299.4230 -624.6381 -570.1466 30323.4967 211.3554 282.0528
ENERGY: 600000 3.3231 12.5901 12.8073 0.0000 -10490.1467 1393.0568 0.0000 0.0000 1703.1067 -7365.2627 292.6058 -9068.3694 -7331.2368 297.6442 149.8473 221.0122 29724.8769 89.8040 169.0708
ENERGY: 900000 4.9824 14.8160 10.2875 0.0000 -10536.4212 1457.2307 0.0000 0.0000 1740.5890 -7308.5157 299.0455 -9049.1047 -7343.7395 297.8155 557.6907 588.2444 29617.8662 63.7683 131.2945
ENERGY: 1200000 2.2746 12.7672 10.6387 0.0000 -10525.1445 1417.6354 0.0000 0.0000 1748.7652 -7333.0633 300.4502 -9081.8285 -7340.9557 298.3084 263.0267 344.6652 29610.4869 79.8803 145.0493
ENERGY: 1500000 2.1949 14.2403 8.2344 0.0000 -10584.4761 1438.1494 0.0000 0.0000 1726.8114 -7394.8456 296.6784 -9121.6570 -7343.5725 298.2445 229.6574 265.3925 29852.4685 127.2276 191.9108
TCL: Running FEP window  15: Lambda1 0.7000000000000001 Lambda2 0.7500000000000001 [dLambda 0.050000000000000044]
TCL: Setting parameter firsttimestep to 0
TCL: Setting parameter alchLambda to 0.7000000000000001
Info: NONBONDED TABLE R-SQUARED SPACING: 0.0625
Info: NONBONDED TABLE SIZE: 705 POINTS
TCL: Setting parameter alchLambda2 to 0.7500000000000001
Info: NONBONDED TABLE R-SQUARED SPACING: 0.0625
Info: NONBONDED TABLE SIZE: 705 POINTS
TCL: Running for 1500000 steps
ETITLE: TS BOND ANGLE DIHED IMPRP ELECT VDW BOUNDARY MISC KINETIC TOTAL TEMP POTENTIAL TOTALAVG TEMPAVG PRESSURE GPRESSURE VOLUME PRESSAVG GPRESSAVG
ENERGY: 0 2.1949 14.2403 8.2344 0.0000 -10584.5735 1437.1771 0.0000 0.0000 1725.9015 -7396.8253 296.5221 -9122.7268 -7396.8253 296.5221 184.8283 268.9284 29852.4685 184.8283 268.9284
ENERGY: 300000 4.2193 15.5971 8.4962 0.0000 -10592.3331 1449.1435 0.0000 0.0000 1759.0205 -7355.8565 302.2121 -9114.8769 -7347.1915 302.7339 359.0991 467.8153 29662.7316 156.0413 247.5251
ENERGY: 600000 2.4653 20.4095 8.5817 0.0000 -10550.0754 1437.2682 0.0000 0.0000 1755.1085 -7326.2423 301.5400 -9081.3507 -7326.8976 301.0758 153.7040 192.6860 30097.2560 -48.2084 24.3911
ENERGY: 900000 3.3384 14.4349 8.5899 0.0000 -10448.6386 1356.9149 0.0000 0.0000 1677.8570 -7387.5034 288.2677 -9065.3604 -7342.1459 299.4683 -536.8557 -491.4759 30115.9370 -42.9141 35.3974
ENERGY: 1200000 3.3608 16.9247 8.3502 0.0000 -10413.2321 1276.3530 0.0000 0.0000 1788.3191 -7319.9242 307.2459 -9108.2434 -7327.4108 300.8950 -639.2242 -628.7639 29380.0494 -167.3468 -96.5011
ENERGY: 1500000 3.2821 16.2599 6.5770 0.0000 -10504.3996 1370.3906 0.0000 0.0000 1676.7368 -7431.1532 288.0752 -9107.8900 -7337.0092 299.6623 -235.4578 -197.8795 29577.7116 -119.3291 -55.0323
TCL: Running FEP window  16: Lambda1 0.7500000000000001 Lambda2 0.8000000000000002 [dLambda 0.050000000000000044]
TCL: Setting parameter firsttimestep to 0
TCL: Setting parameter alchLambda to 0.7500000000000001
Info: NONBONDED TABLE R-SQUARED SPACING: 0.0625
Info: NONBONDED TABLE SIZE: 705 POINTS
TCL: Setting parameter alchLambda2 to 0.8000000000000002
Info: NONBONDED TABLE R-SQUARED SPACING: 0.0625
Info: NONBONDED TABLE SIZE: 705 POINTS
TCL: Running for 1500000 steps
ETITLE: TS BOND ANGLE DIHED IMPRP ELECT VDW BOUNDARY MISC KINETIC TOTAL TEMP POTENTIAL TOTALAVG TEMPAVG PRESSURE GPRESSURE VOLUME PRESSAVG GPRESSAVG
ENERGY: 0 3.2821 16.2599 6.5770 0.0000 -10504.9201 1370.4540 0.0000 0.0000 1675.8828 -7432.4643 287.9285 -9108.3471 -7432.4643 287.9285 -254.3585 -176.2969 29577.7116 -254.3585 -176.2969
ENERGY: 300000 3.9802 15.0166 6.8689 0.0000 -10497.0976 1469.0869 0.0000 0.0000 1747.1390 -7255.0059 300.1708 -9002.1449 -7342.7092 293.4907 730.9197 751.5451 30178.3954 116.8775 164.5659
ENERGY: 600000 1.4502 19.4926 9.1390 0.0000 -10503.6288 1379.7681 0.0000 0.0000 1767.9360 -7325.8428 303.7439 -9093.7788 -7340.1670 296.8179 -313.0088 -233.4637 30291.6339 -1.7571 58.2265
ENERGY: 900000 5.8613 16.0794 8.7543 0.0000 -10458.1577 1335.4499 0.0000 0.0000 1755.6924 -7336.3204 301.6404 -9092.0128 -7348.4858 297.9544 -691.1168 -670.5399 30316.3889 51.0467 100.8224
ENERGY: 1200000 4.2121 17.5864 9.0154 0.0000 -10368.5048 1353.5491 0.0000 0.0000 1720.7424 -7263.3993 295.6357 -8984.1417 -7350.0331 297.7427 -557.0022 -520.7057 30644.2018 -3.1811 55.6814
ENERGY: 1500000 1.7953 19.1401 10.9157 0.0000 -10394.7691 1388.6421 0.0000 0.0000 1717.3762 -7256.8998 295.0574 -8974.2759 -7350.5776 296.5724 55.1106 111.9118 30452.1242 63.6308 117.6861
TCL: Running FEP window  17: Lambda1 0.8000000000000002 Lambda2 0.8500000000000002 [dLambda 0.050000000000000044]
TCL: Setting parameter firsttimestep to 0
TCL: Setting parameter alchLambda to 0.8000000000000002
Info: NONBONDED TABLE R-SQUARED SPACING: 0.0625
Info: NONBONDED TABLE SIZE: 705 POINTS
TCL: Setting parameter alchLambda2 to 0.8500000000000002
Info: NONBONDED TABLE R-SQUARED SPACING: 0.0625
Info: NONBONDED TABLE SIZE: 705 POINTS
TCL: Running for 1500000 steps
ETITLE: TS BOND ANGLE DIHED IMPRP ELECT VDW BOUNDARY MISC KINETIC TOTAL TEMP POTENTIAL TOTALAVG TEMPAVG PRESSURE GPRESSURE VOLUME PRESSAVG GPRESSAVG
ENERGY: 0 1.7953 19.1401 10.9157 0.0000 -10395.2772 1389.5748 0.0000 0.0000 1716.5165 -7257.3348 294.9097 -8973.8513 -7257.3348 294.9097 54.8642 140.6869 30452.1242 54.8642 140.6869
ENERGY: 300000 1.6888 14.1421 8.7607 0.0000 -10447.8616 1304.4941 0.0000 0.0000 1801.2409 -7317.5349 309.4659 -9118.7759 -7324.4029 299.4059 -987.5313 -912.9679 30419.6197 -87.1115 -26.5980
ENERGY: 600000 1.2351 18.4279 10.4481 0.0000 -10494.7936 1380.5975 0.0000 0.0000 1752.0079 -7332.0772 301.0073 -9084.0851 -7331.5120 301.5265 21.4965 103.5044 29670.2805 -68.5459 -11.7790
ENERGY: 900000 4.1288 12.5747 10.1857 0.0000 -10608.1370 1483.9016 0.0000 0.0000 1740.1009 -7357.2453 298.9616 -9097.3462 -7342.3402 302.4050 597.5527 630.2548 30164.9726 -145.8254 -84.4913
ENERGY: 1200000 2.2603 14.9666 10.6344 0.0000 -10498.5600 1391.0550 0.0000 0.0000 1742.8483 -7336.7955 299.4336 -9079.6437 -7351.2315 301.0516 -17.9138 30.5049 30034.5842 -171.5431 -111.3973
ENERGY: 1500000 4.7012 22.1695 9.2646 0.0000 -10496.4441 1401.8981 0.0000 0.0000 1753.7851 -7304.6255 301.3127 -9058.4107 -7343.4029 301.5904 179.3684 199.5210 29852.4517 -208.9831 -145.4518
TCL: Running FEP window  18: Lambda1 0.8500000000000002 Lambda2 0.9000000000000002 [dLambda 0.050000000000000044]
TCL: Setting parameter firsttimestep to 0
TCL: Setting parameter alchLambda to 0.8500000000000002
Info: NONBONDED TABLE R-SQUARED SPACING: 0.0625
Info: NONBONDED TABLE SIZE: 705 POINTS
TCL: Setting parameter alchLambda2 to 0.9000000000000002
Info: NONBONDED TABLE R-SQUARED SPACING: 0.0625
Info: NONBONDED TABLE SIZE: 705 POINTS
TCL: Running for 1500000 steps
ETITLE: TS BOND ANGLE DIHED IMPRP ELECT VDW BOUNDARY MISC KINETIC TOTAL TEMP POTENTIAL TOTALAVG TEMPAVG PRESSURE GPRESSURE VOLUME PRESSAVG GPRESSAVG
ENERGY: 0 4.7012 22.1695 9.2646 0.0000 -10497.5993 1402.6961 0.0000 0.0000 1752.9327 -7305.8352 301.1662 -9058.7679 -7305.8352 301.1662 139.5894 220.8774 29852.4517 139.5894 220.8774
ENERGY: 300000 1.8012 19.8432 9.1339 0.0000 -10586.6083 1413.5639 0.0000 0.0000 1708.1540 -7434.1121 293.4729 -9142.2661 -7325.4343 303.4066 -145.4976 -117.9055 30235.4486 -135.8509 -82.6183
ENERGY: 600000 3.3937 15.5415 10.1062 0.0000 -10614.0981 1483.6120 0.0000 0.0000 1681.0154 -7420.4294 288.8103 -9101.4448 -7337.9351 300.7622 703.6570 677.1708 29318.2518 -166.7415 -129.2485
ENERGY: 900000 0.9219 13.7052 8.5400 0.0000 -10570.2763 1461.7598 0.0000 0.0000 1745.9157 -7339.4337 299.9606 -9085.3494 -7338.6485 300.3233 487.1965 548.4776 30253.6520 -36.7362 8.4933
ENERGY: 1200000 3.4222 14.6498 11.2863 0.0000 -10468.3501 1305.3618 0.0000 0.0000 1724.9894 -7408.6407 296.3654 -9133.6301 -7340.7390 300.4652 -801.4166 -695.6186 29824.1057 -62.0762 -12.2806
ENERGY: 1500000 7.0435 19.3259 10.2572 0.0000 -10505.7276 1406.5281 0.0000 0.0000 1756.2166 -7306.3563 301.7304 -9062.5729 -7342.9565 300.6216 -101.4453 -34.9365 30343.4648 55.2218 106.2290
TCL: Running FEP window  19: Lambda1 0.9000000000000002 Lambda2 0.9500000000000003 [dLambda 0.050000000000000044]
TCL: Setting parameter firsttimestep to 0
TCL: Setting parameter alchLambda to 0.9000000000000002
Info: NONBONDED TABLE R-SQUARED SPACING: 0.0625
Info: NONBONDED TABLE SIZE: 705 POINTS
TCL: Setting parameter alchLambda2 to 0.9500000000000003
Info: NONBONDED TABLE R-SQUARED SPACING: 0.0625
Info: NONBONDED TABLE SIZE: 705 POINTS
TCL: Running for 1500000 steps
ETITLE: TS BOND ANGLE DIHED IMPRP ELECT VDW BOUNDARY MISC KINETIC TOTAL TEMP POTENTIAL TOTALAVG TEMPAVG PRESSURE GPRESSURE VOLUME PRESSAVG GPRESSAVG
ENERGY: 0 7.0435 19.3259 10.2572 0.0000 -10506.7950 1406.0247 0.0000 0.0000 1755.3302 -7308.8134 301.5781 -9064.1436 -7308.8134 301.5781 -101.7116 -26.7912 30343.4648 -101.7116 -26.7912
ENERGY: 300000 1.4800 20.1741 11.0162 0.0000 -10537.5089 1397.5856 0.0000 0.0000 1715.1342 -7392.1188 294.6722 -9107.2530 -7331.1240 299.8076 -157.5547 -108.6761 30086.8943 -1.8832 35.5502
ENERGY: 600000 4.8095 15.7650 12.1254 0.0000 -10530.2585 1409.9414 0.0000 0.0000 1731.8746 -7355.7426 297.5483 -9087.6172 -7380.6093 297.9678 -133.6264 -89.1329 30078.1504 12.5618 46.6142
ENERGY: 900000 2.3523 19.4519 9.5349 0.0000 -10667.7277 1480.8711 0.0000 0.0000 1727.6869 -7427.8307 296.8288 -9155.5176 -7375.8804 299.2874 552.5951 616.2291 29801.3102 127.6313 162.6652
ENERGY: 1200000 5.3499 11.2385 6.7751 0.0000 -10587.9277 1430.0464 0.0000 0.0000 1725.1326 -7409.3852 296.3900 -9134.5178 -7363.5043 300.3143 210.3966 246.6707 29618.7754 207.8048 250.3947
ENERGY: 1500000 1.5746 15.1951 9.3444 0.0000 -10397.8152 1286.7376 0.0000 0.0000 1662.0128 -7422.9508 285.5455 -9084.9635 -7368.7105 299.4368 -1046.1158 -969.8817 30382.1525 126.8882 169.4795
TCL: Running FEP window  20: Lambda1 0.9500000000000003 Lambda2 1.0    [dLambda 0.04999999999999971]
TCL: Setting parameter firsttimestep to 0
TCL: Setting parameter alchLambda to 0.9500000000000003
Info: NONBONDED TABLE R-SQUARED SPACING: 0.0625
Info: NONBONDED TABLE SIZE: 705 POINTS
TCL: Setting parameter alchLambda2 to 1.0
Info: NONBONDED TABLE R-SQUARED SPACING: 0.0625
Info: NONBONDED TABLE SIZE: 705 POINTS
TCL: Running for 1500000 steps
ETITLE: TS BOND ANGLE DIHED IMPRP ELECT VDW BOUNDARY MISC KINETIC TOTAL TEMP POTENTIAL TOTALAVG TEMPAVG PRESSURE GPRESSURE VOLUME PRESSAVG GPRESSAVG
ENERGY: 0 1.5746 15.1951 9.3444 0.0000 -10398.8130 1286.9679 0.0000 0.0000 1661.1288 -7424.6021 285.3937 -9085.7309 -7424.6021 285.3937 -1042.4189 -949.1746 30382.1525 -1042.4189 -949.1746
ENERGY: 300000 2.1784 15.8388 9.1629 0.0000 -10511.2569 1380.5897 0.0000 0.0000 1798.9921 -7304.4949 309.0796 -9103.4870 -7347.2102 294.7833 -132.7080 -28.8465 29953.6605 -441.6906 -382.4107
ENERGY: 600000 2.7201 21.5280 9.6701 0.0000 -10547.0945 1450.5168 0.0000 0.0000 1752.6156 -7310.0439 301.1117 -9062.6594 -7338.6995 298.4590 626.3132 693.6773 30138.7742 -170.7519 -112.6126
ENERGY: 900000 3.2375 13.4491 10.4686 0.0000 -10495.4079 1362.0727 0.0000 0.0000 1772.6898 -7333.4901 304.5606 -9106.1799 -7334.3694 300.9296 -201.7069 -138.3906 29583.6143 -70.1455 -4.9015
ENERGY: 1200000 2.6561 13.6193 8.6811 0.0000 -10523.2180 1354.7810 0.0000 0.0000 1733.4624 -7410.0182 297.8211 -9143.4805 -7341.2535 300.2714 -504.6137 -392.1209 29852.9688 -129.8206 -52.9601
ENERGY: 1500000 2.6131 17.1861 10.2347 0.0000 -10419.7511 1392.3077 0.0000 0.0000 1761.5456 -7235.8638 302.6460 -8997.4094 -7340.7855 299.8434 162.2185 213.8580 30173.8684 -167.4245 -94.2362
TCL: Exiting due to exit command.
