Info: SIMULATION PARAMETERS:
Info: TIMESTEP               2
Info: NUMBER OF STEPS        0
Info: STEPS PER CYCLE        10
Info: PERIODIC CELL BASIS 1  36.3774 0 0
Info: PERIODIC CELL BASIS 2  0 29.4695 0
Info: PERIODIC CELL BASIS 3  0 0 28.7424
Info: PERIODIC CELL CENTER   0 0 0
Info: WRAPPING WATERS AROUND PERIODIC BOUNDARIES ON OUTPUT.
Info: WRAPPING ALL CLUSTERS AROUND PERIODIC BOUNDARIES ON OUTPUT.
Info: FIRST LDB TIMESTEP     50
Info: LAST LDB TIMESTEP     -1
Info: HOM BACKGROUND SCALING 1
Info: PME BACKGROUND SCALING 1
Info: MIN ATOMS PER PATCH    40
Info: EMPTY PATCH LOAD       40 ATOMS
Info: VELOCITY FILE          mobley_129464_equil.vel
Info: CENTER OF MASS MOVING INITIALLY? NO
Info: DIELECTRIC             1
Info: EXCLUDE                SCALED ONE-FOUR
Info: 1-4 ELECTROSTATICS SCALED BY 0.833333
Info: MODIFIED 1-4 VDW PARAMETERS WILL BE USED
Info: DCD FILENAME           mobley_129464_prod.dcd
Info: DCD FREQUENCY          100000
Info: DCD FIRST STEP         100000
Info: DCD FILE WILL CONTAIN UNIT CELL DATA
Info: XST FILENAME           mobley_129464_prod.xst
Info: XST FREQUENCY          100000
Info: NO VELOCITY DCD OUTPUT
Info: NO FORCE DCD OUTPUT
Info: OUTPUT FILENAME        mobley_129464_prod
Info: BINARY OUTPUT FILES WILL BE USED
Info: RESTART FILENAME       mobley_129464_prod.restart
Info: RESTART FREQUENCY      100000
Info: BINARY RESTART FILES WILL BE USED
Info: CUTOFF                 9
Info: PAIRLIST DISTANCE      11
Info: PAIRLIST SHRINK RATE   0.01
Info: PAIRLIST GROW RATE     0.01
Info: PAIRLIST TRIGGER       0.3
Info: PAIRLISTS PER CYCLE    2
Info: PAIRLISTS ENABLED
Info: MARGIN                 2
Info: HYDROGEN GROUP CUTOFF  2.5
Info: PATCH DIMENSION        15.5
Info: ENERGY OUTPUT STEPS    100000
Info: ENERGY EVALUATION STEPS    100000
Info: OUTPUT ENERGY PRECISION 4
Info: CROSSTERM ENERGY INCLUDED IN DIHEDRAL
Info: TIMING OUTPUT STEPS    1000000
Info: PRESSURE OUTPUT STEPS  100000
Info: ALCHEMICAL FEP ON
Info: FEP CURRENT LAMBDA VALUE     0
Info: FEP COMPARISON LAMBDA VALUE  0.05
Info: FEP INTRA-ALCHEMICAL NON-BONDED INTERACTIONS WILL BE RETAINED
Info: FEP INTRA-ALCHEMICAL BONDED INTERACTIONS WILL BE RETAINED
Info: FEP VDW SHIFTING COEFFICIENT 5
Info: FEP ELEC. ACTIVE FOR ANNIHILATED PARTICLES BETWEEN LAMBDA = 0 AND LAMBDA = 0.5
Info: FEP ELEC. ACTIVE FOR EXNIHILATED PARTICLES BETWEEN LAMBDA = 0.5 AND LAMBDA = 1
Info: FEP VDW ACTIVE FOR ANNIHILATED PARTICLES BETWEEN LAMBDA = 0 AND LAMBDA = 1
Info: FEP VDW ACTIVE FOR EXNIHILATED PARTICLES BETWEEN LAMBDA = 0 AND LAMBDA = 1
Info: FEP BOND ACTIVE FOR ANNIHILATED PARTICLES BETWEEN LAMBDA = 1 AND LAMBDA = 1
Info: FEP BOND ACTIVE FOR EXNIHILATED PARTICLES BETWEEN LAMBDA = 0 AND LAMBDA = 0
Info: LANGEVIN DYNAMICS ACTIVE
Info: LANGEVIN TEMPERATURE   300
Info: LANGEVIN USING BBK INTEGRATOR
Info: LANGEVIN DAMPING COEFFICIENT IS 1 INVERSE PS
Info: LANGEVIN DYNAMICS APPLIED TO HYDROGENS
Info: LANGEVIN PISTON PRESSURE CONTROL ACTIVE
Info:        TARGET PRESSURE IS 1.01325 BAR
Info:     OSCILLATION PERIOD IS 50 FS
Info:             DECAY TIME IS 25 FS
Info:     PISTON TEMPERATURE IS 300 K
Info:       PRESSURE CONTROL IS GROUP-BASED
Info:    INITIAL STRAIN RATE IS -0.00030409 -0.00030409 -0.00030409
Info:       CELL FLUCTUATION IS ISOTROPIC
Info: PARTICLE MESH EWALD (PME) ACTIVE
Info: PME TOLERANCE               1e-06
Info: PME EWALD COEFFICIENT       0.348832
Info: PME INTERPOLATION ORDER     4
Info: PME GRID DIMENSIONS         40 32 32
Info: PME MAXIMUM GRID SPACING    1
Info: PME CALCULATION WILL BE PERFORMED ON GPU
Info: FULL ELECTROSTATIC EVALUATION FREQUENCY      2
Info: USING VERLET I (r-RESPA) MTS SCHEME.
Info: C1 SPLITTING OF LONG RANGE ELECTROSTATICS
Info: PLACING ATOMS IN PATCHES BY HYDROGEN GROUPS
Info: RIGID BONDS TO HYDROGEN : ALL
Info:         ERROR TOLERANCE : 1e-08
Info:          MAX ITERATIONS : 100
Info: RIGID WATER USING SETTLE ALGORITHM
Info: RANDOM NUMBER SEED     1744069038
Info: USE HYDROGEN BONDS?    NO
Info: Using AMBER format force field!
Info: AMBER PARM FILE        mobley_129464.prmtop
Info: COORDINATE PDB         mobley_129464.pdb
Info: Exclusions will be read from PARM file!
Info: SCNB (VDW SCALING)     2
Info: USING ARITHMETIC MEAN TO COMBINE L-J SIGMA PARAMETERS
Info: BINARY COORDINATES     mobley_129464_equil.coor
Info: SUMMARY OF PARAMETERS:
Info: 6 BONDS
Info: 8 ANGLES
Info:   8 HARMONIC
Info:   0 COSINE-BASED
Info: 11 DIHEDRAL
Info: 0 IMPROPER
Info: 0 CROSSTERM
Info: 0 VDW
Info: 21 VDW_PAIRS
Info: 0 NBTHOLE_PAIRS
Info: To read alchdata from file: mobley_129464.pdb
Info: To read alchflag data from column: 5
Info: STRUCTURE SUMMARY:
Info: 2958 ATOMS
Info: 2957 BONDS
Info: 49 ANGLES
Info: 70 DIHEDRALS
Info: 0 IMPROPERS
Info: 0 CROSSTERMS
Info: 3066 EXCLUSIONS
Info: 2949 RIGID BONDS
Info: ALCH: 0 ATOMS TO DISAPPEAR IN FINAL STATE
Info: ALCH: 27 ATOMS TO APPEAR IN FINAL STATE
Info: 5925 DEGREES OF FREEDOM
Info: 986 HYDROGEN GROUPS
Info: 4 ATOMS IN LARGEST HYDROGEN GROUP
Info: 986 MIGRATION GROUPS
Info: 4 ATOMS IN LARGEST MIGRATION GROUP
Info: TOTAL MASS = 17731.9 amu
Info: TOTAL CHARGE = -0.000399999 e
Info: MASS DENSITY = 0.955621 g/cm^3
Info: ATOM DENSITY = 0.0959999 atoms/A^3
Info: ADDED 0 IMPLICIT EXCLUSIONS
Info: NONBONDED TABLE R-SQUARED SPACING: 0.0625
Info: NONBONDED TABLE SIZE: 705 POINTS
Info: REMOVING COM VELOCITY -0.080594 0.084387 0.0900109
Info: Use 3D box decompostion in PME FFT.
Info: Updated CUDA force table with 4096 elements.
Info: Updated CUDA LJ table with 6 x 6 elements.
Info: Found 28 unique exclusion lists needing 100 bytes
TCL: Running for 1500000 steps
ETITLE: TS BOND ANGLE DIHED IMPRP ELECT VDW BOUNDARY MISC KINETIC TOTAL TEMP POTENTIAL TOTALAVG TEMPAVG PRESSURE GPRESSURE VOLUME PRESSAVG GPRESSAVG
ENERGY: 0 3.9851 16.0476 4.9281 0.0000 -10631.7374 1390.0608 0.0000 0.0000 1733.3747 -7483.3411 294.4384 -9216.7158 -7483.3411 294.4384 -723.2915 -659.2301 30812.5426 -723.2915 -659.2301
ENERGY: 300000 1.5594 13.0796 3.1801 0.0000 -10618.9975 1355.7834 0.0000 0.0000 1763.7694 -7481.6257 299.6014 -9245.3951 -7477.1366 298.9624 -548.5707 -493.0315 29907.2263 -234.3999 -183.0263
ENERGY: 600000 3.5149 11.6848 8.3665 0.0000 -10658.2556 1371.1467 0.0000 0.0000 1730.9114 -7532.6312 294.0200 -9263.5426 -7470.8180 299.9037 -654.2294 -648.5070 29773.0872 -152.1028 -89.1756
ENERGY: 900000 0.3248 15.8224 3.6006 0.0000 -10699.0518 1482.4676 0.0000 0.0000 1776.7135 -7420.1229 301.8001 -9196.8364 -7459.3380 300.5640 419.8384 457.1202 30076.9310 -91.8092 -43.4974
ENERGY: 1200000 2.7661 12.4959 5.4109 0.0000 -10818.2388 1603.4534 0.0000 0.0000 1728.1618 -7465.9507 293.5529 -9194.1125 -7459.3465 300.1530 1101.8551 1169.7273 30425.6927 -49.3318 -0.8682
ENERGY: 1500000 0.9981 9.5190 5.2931 0.0000 -10830.5430 1496.5942 0.0000 0.0000 1746.4260 -7571.7126 296.6554 -9318.1386 -7462.3282 300.0635 276.3265 327.5815 30105.7176 15.8952 63.2346
TCL: Running FEP window   2: Lambda1 0.05   Lambda2 0.1    [dLambda 0.05  ]
TCL: Setting parameter firsttimestep to 0
TCL: Setting parameter alchLambda to 0.05
Info: NONBONDED TABLE R-SQUARED SPACING: 0.0625
Info: NONBONDED TABLE SIZE: 705 POINTS
TCL: Setting parameter alchLambda2 to 0.1
Info: NONBONDED TABLE R-SQUARED SPACING: 0.0625
Info: NONBONDED TABLE SIZE: 705 POINTS
TCL: Running for 1500000 steps
ETITLE: TS BOND ANGLE DIHED IMPRP ELECT VDW BOUNDARY MISC KINETIC TOTAL TEMP POTENTIAL TOTALAVG TEMPAVG PRESSURE GPRESSURE VOLUME PRESSAVG GPRESSAVG
ENERGY: 0 0.9981 9.5190 5.2931 0.0000 -10830.5414 1500.6279 0.0000 0.0000 1745.5479 -7568.5555 296.5062 -9314.1034 -7568.5555 296.5062 269.6856 339.6090 30105.7176 269.6856 339.6090
ENERGY: 300000 1.7428 12.2490 4.9376 0.0000 -10680.2244 1406.9145 0.0000 0.0000 1759.4809 -7494.8996 298.8729 -9254.3805 -7493.2259 299.2489 -316.6593 -264.8396 29983.0504 -202.2496 -138.4259
ENERGY: 600000 3.9091 14.4794 5.6391 0.0000 -10783.8527 1498.4187 0.0000 0.0000 1756.9861 -7504.4204 298.4492 -9261.4064 -7484.6839 299.9687 28.2140 102.2666 30294.2500 -179.1196 -109.9207
ENERGY: 900000 1.7241 17.5753 7.1685 0.0000 -10699.2862 1489.0318 0.0000 0.0000 1799.9817 -7383.8048 305.7526 -9183.7865 -7480.9925 299.9790 402.9608 455.6782 30117.3167 -129.4421 -70.8278
ENERGY: 1200000 4.8234 10.9735 5.2433 0.0000 -10704.5735 1466.8443 0.0000 0.0000 1770.4020 -7446.2871 300.7280 -9216.6891 -7473.8411 300.5671 312.7684 360.3035 30002.6505 -56.7569 3.4841
ENERGY: 1500000 2.1040 14.7068 5.0442 0.0000 -10620.7343 1379.8711 0.0000 0.0000 1734.9044 -7484.1038 294.6983 -9219.0082 -7474.3442 300.0879 -411.3550 -379.6497 30289.4657 -143.5396 -86.2938
TCL: Running FEP window   3: Lambda1 0.1    Lambda2 0.15000000000000002 [dLambda 0.05000000000000002]
TCL: Setting parameter firsttimestep to 0
TCL: Setting parameter alchLambda to 0.1
Info: NONBONDED TABLE R-SQUARED SPACING: 0.0625
Info: NONBONDED TABLE SIZE: 705 POINTS
TCL: Setting parameter alchLambda2 to 0.15000000000000002
Info: NONBONDED TABLE R-SQUARED SPACING: 0.0625
Info: NONBONDED TABLE SIZE: 705 POINTS
TCL: Running for 1500000 steps
ETITLE: TS BOND ANGLE DIHED IMPRP ELECT VDW BOUNDARY MISC KINETIC TOTAL TEMP POTENTIAL TOTALAVG TEMPAVG PRESSURE GPRESSURE VOLUME PRESSAVG GPRESSAVG
ENERGY: 0 2.1040 14.7068 5.0442 0.0000 -10620.7353 1380.3795 0.0000 0.0000 1734.0635 -7484.4373 294.5554 -9218.5008 -7484.4373 294.5554 -451.6053 -374.7275 30289.4657 -451.6053 -374.7275
ENERGY: 300000 0.9237 10.1518 6.2596 0.0000 -10604.9411 1411.1599 0.0000 0.0000 1748.0448 -7428.4013 296.9304 -9176.4461 -7426.1278 301.8982 -257.7106 -236.6717 30581.7071 103.3251 190.8005
ENERGY: 600000 1.9986 16.5553 4.1192 0.0000 -10659.2817 1423.6823 0.0000 0.0000 1784.0377 -7428.8885 303.0443 -9212.9263 -7412.6712 302.5395 13.3939 76.4072 30275.2466 -44.1937 48.0917
ENERGY: 900000 2.2276 12.9620 5.9164 0.0000 -10769.0488 1509.6761 0.0000 0.0000 1775.3735 -7462.8932 301.5725 -9238.2667 -7419.7417 302.2100 559.4067 621.1041 30006.5993 -48.6697 41.6905
ENERGY: 1200000 3.0770 11.6675 3.5434 0.0000 -10648.4809 1435.3302 0.0000 0.0000 1756.2822 -7438.5806 298.3296 -9194.8627 -7429.6233 301.4595 -35.6011 -10.5226 30263.2122 -30.6302 45.2671
ENERGY: 1500000 3.2397 18.2857 6.0846 0.0000 -10614.9820 1381.8393 0.0000 0.0000 1739.9107 -7465.6220 295.5487 -9205.5326 -7432.0559 301.3001 -738.2042 -707.3522 30429.5131 -93.2023 -22.8831
TCL: Running FEP window   4: Lambda1 0.15000000000000002 Lambda2 0.2    [dLambda 0.04999999999999999]
TCL: Setting parameter firsttimestep to 0
TCL: Setting parameter alchLambda to 0.15000000000000002
Info: NONBONDED TABLE R-SQUARED SPACING: 0.0625
Info: NONBONDED TABLE SIZE: 705 POINTS
TCL: Setting parameter alchLambda2 to 0.2
Info: NONBONDED TABLE R-SQUARED SPACING: 0.0625
Info: NONBONDED TABLE SIZE: 705 POINTS
TCL: Running for 1500000 steps
ETITLE: TS BOND ANGLE DIHED IMPRP ELECT VDW BOUNDARY MISC KINETIC TOTAL TEMP POTENTIAL TOTALAVG TEMPAVG PRESSURE GPRESSURE VOLUME PRESSAVG GPRESSAVG
ENERGY: 0 3.2397 18.2857 6.0846 0.0000 -10614.9808 1383.8234 0.0000 0.0000 1739.0393 -7464.5081 295.4006 -9203.5473 -7464.5081 295.4006 -784.6121 -694.7170 30429.5131 -784.6121 -694.7170
ENERGY: 300000 4.5684 14.3239 4.3877 0.0000 -10738.9685 1445.9341 0.0000 0.0000 1711.5495 -7558.2050 290.7311 -9269.7545 -7471.9090 296.2625 -377.3189 -280.2504 30384.4244 -475.5336 -417.5070
ENERGY: 600000 3.1875 11.8768 3.9883 0.0000 -10631.5469 1421.1068 0.0000 0.0000 1738.0597 -7453.3279 295.2342 -9191.3876 -7452.4022 298.6154 -487.5448 -384.4271 30768.5901 -350.9208 -293.2996
ENERGY: 900000 1.2311 15.1312 4.5715 0.0000 -10764.3501 1525.9461 0.0000 0.0000 1767.7788 -7449.6914 300.2825 -9217.4702 -7467.7758 297.4099 742.7717 798.1903 30277.6536 -151.7032 -86.4635
ENERGY: 1200000 0.7896 10.1046 5.0368 0.0000 -10616.1667 1395.2551 0.0000 0.0000 1775.9210 -7429.0595 301.6655 -9204.9805 -7451.5562 298.1998 -383.1724 -276.8865 30530.3784 -104.3836 -41.2484
ENERGY: 1500000 3.8187 10.3718 4.3626 0.0000 -10522.1208 1374.7059 0.0000 0.0000 1760.5060 -7368.3559 299.0471 -9128.8619 -7445.0771 298.1164 -454.3948 -382.8442 30699.5476 -71.9339 -5.6654
TCL: Running FEP window   5: Lambda1 0.2    Lambda2 0.25   [dLambda 0.04999999999999999]
TCL: Setting parameter firsttimestep to 0
TCL: Setting parameter alchLambda to 0.2
Info: NONBONDED TABLE R-SQUARED SPACING: 0.0625
Info: NONBONDED TABLE SIZE: 705 POINTS
TCL: Setting parameter alchLambda2 to 0.25
Info: NONBONDED TABLE R-SQUARED SPACING: 0.0625
Info: NONBONDED TABLE SIZE: 705 POINTS
TCL: Running for 1500000 steps
ETITLE: TS BOND ANGLE DIHED IMPRP ELECT VDW BOUNDARY MISC KINETIC TOTAL TEMP POTENTIAL TOTALAVG TEMPAVG PRESSURE GPRESSURE VOLUME PRESSAVG GPRESSAVG
ENERGY: 0 3.8187 10.3718 4.3626 0.0000 -10522.1211 1374.1974 0.0000 0.0000 1759.6038 -7369.7669 298.8938 -9129.3707 -7369.7669 298.8938 -462.0555 -378.1779 30699.5476 -462.0555 -378.1779
ENERGY: 300000 2.5143 13.9419 4.4274 0.0000 -10759.4449 1507.7316 0.0000 0.0000 1775.4618 -7455.3680 301.5875 -9230.8297 -7436.8944 301.4964 603.8778 602.4208 30122.2936 261.2664 297.1730
ENERGY: 600000 2.4912 12.9645 4.2220 0.0000 -10689.6740 1430.4977 0.0000 0.0000 1749.3654 -7490.1332 297.1547 -9239.4986 -7437.1437 299.3171 -426.6369 -357.0541 30434.3930 120.4628 171.7657
ENERGY: 900000 3.1397 15.9623 6.9526 0.0000 -10752.6414 1417.2613 0.0000 0.0000 1780.9955 -7528.3301 302.5275 -9309.3255 -7450.1457 300.0088 -86.8235 -2.7519 29830.2512 44.9346 96.3410
ENERGY: 1200000 2.2750 9.6049 4.1291 0.0000 -10734.0985 1475.8679 0.0000 0.0000 1745.9210 -7496.3007 296.5696 -9242.2217 -7457.8654 299.1370 374.5643 385.6861 30193.9357 86.3752 134.3049
ENERGY: 1500000 2.0066 13.5602 4.0229 0.0000 -10732.4074 1465.5822 0.0000 0.0000 1784.5025 -7462.7330 303.1232 -9247.2354 -7456.3584 299.0137 -3.0873 93.2498 30313.4399 27.2942 81.1739
TCL: Running FEP window   6: Lambda1 0.25   Lambda2 0.3    [dLambda 0.04999999999999999]
TCL: Setting parameter firsttimestep to 0
TCL: Setting parameter alchLambda to 0.25
Info: NONBONDED TABLE R-SQUARED SPACING: 0.0625
Info: NONBONDED TABLE SIZE: 705 POINTS
TCL: Setting parameter alchLambda2 to 0.3
Info: NONBONDED TABLE R-SQUARED SPACING: 0.0625
Info: NONBONDED TABLE SIZE: 705 POINTS
TCL: Running for 1500000 steps
ETITLE: TS BOND ANGLE DIHED IMPRP ELECT VDW BOUNDARY MISC KINETIC TOTAL TEMP POTENTIAL TOTALAVG TEMPAVG PRESSURE GPRESSURE VOLUME PRESSAVG GPRESSAVG
ENERGY: 0 2.0066 13.5602 4.0229 0.0000 -10732.4070 1466.9929 0.0000 0.0000 1783.5604 -7462.2639 302.9632 -9245.8244 -7462.2639 302.9632 10.6731 108.3145 30313.4399 10.6731 108.3145
ENERGY: 300000 4.6257 10.2608 2.7822 0.0000 -10598.6335 1374.2990 0.0000 0.0000 1784.5801 -7422.0859 303.1364 -9206.6659 -7448.5269 300.3255 -777.0647 -712.3405 30757.6675 -289.9982 -208.6354
ENERGY: 600000 3.4982 15.4739 5.4507 0.0000 -10702.4946 1476.1333 0.0000 0.0000 1734.9824 -7466.9562 294.7115 -9201.9386 -7449.3151 299.1254 -113.6181 -59.8297 30736.9364 -215.3373 -133.8568
ENERGY: 900000 1.7746 12.7840 5.3518 0.0000 -10686.5666 1461.0736 0.0000 0.0000 1799.4188 -7406.1638 305.6570 -9205.5827 -7442.6999 301.2603 -37.1643 43.9705 30749.0011 -90.1229 -7.2405
ENERGY: 1200000 0.9485 18.1547 3.9303 0.0000 -10571.7596 1346.9755 0.0000 0.0000 1797.8558 -7403.8947 305.3915 -9201.7506 -7440.4935 301.2305 -413.4183 -373.2988 30143.6715 -165.6247 -81.9655
ENERGY: 1500000 2.7743 11.4749 3.7752 0.0000 -10751.2285 1444.8423 0.0000 0.0000 1771.7268 -7516.6350 300.9531 -9288.3618 -7440.1662 300.6034 5.0480 39.0402 30203.4999 -213.8790 -139.2355
TCL: Running FEP window   7: Lambda1 0.3    Lambda2 0.35   [dLambda 0.04999999999999999]
TCL: Setting parameter firsttimestep to 0
TCL: Setting parameter alchLambda to 0.3
Info: NONBONDED TABLE R-SQUARED SPACING: 0.0625
Info: NONBONDED TABLE SIZE: 705 POINTS
TCL: Setting parameter alchLambda2 to 0.35
Info: NONBONDED TABLE R-SQUARED SPACING: 0.0625
Info: NONBONDED TABLE SIZE: 705 POINTS
TCL: Running for 1500000 steps
ETITLE: TS BOND ANGLE DIHED IMPRP ELECT VDW BOUNDARY MISC KINETIC TOTAL TEMP POTENTIAL TOTALAVG TEMPAVG PRESSURE GPRESSURE VOLUME PRESSAVG GPRESSAVG
ENERGY: 0 2.7743 11.4749 3.7752 0.0000 -10751.2290 1445.0611 0.0000 0.0000 1770.8704 -7517.2731 300.8076 -9288.1435 -7517.2731 300.8076 -36.4641 47.3683 30203.4999 -36.4641 47.3683
ENERGY: 300000 1.5971 11.7017 3.2727 0.0000 -10680.8930 1434.9649 0.0000 0.0000 1778.0237 -7451.3329 302.0227 -9229.3565 -7470.1244 300.9856 -28.8605 35.7555 30099.8558 -266.3376 -201.6552
ENERGY: 600000 1.4620 6.7504 8.1072 0.0000 -10700.5190 1470.0763 0.0000 0.0000 1755.6867 -7458.4365 298.2284 -9214.1232 -7466.6954 298.9659 223.5684 345.0502 30031.8282 -259.6146 -181.2001
ENERGY: 900000 3.8843 11.6215 3.8241 0.0000 -10699.6180 1392.7226 0.0000 0.0000 1748.3649 -7539.2006 296.9847 -9287.5655 -7479.0181 298.0218 -556.3025 -472.6747 29967.6305 -320.0454 -229.2835
ENERGY: 1200000 2.8151 12.1254 3.4425 0.0000 -10690.6484 1448.8966 0.0000 0.0000 1681.0048 -7542.3639 285.5426 -9223.3687 -7475.0738 297.5025 76.5269 163.8782 30084.2992 -179.9825 -97.0054
ENERGY: 1500000 1.4728 11.0586 4.5762 0.0000 -10633.0467 1371.7626 0.0000 0.0000 1723.1841 -7520.9923 292.7074 -9244.1764 -7470.7765 297.5815 -876.9929 -764.2137 30614.9468 -165.7986 -86.2210
TCL: Running FEP window   8: Lambda1 0.35   Lambda2 0.39999999999999997 [dLambda 0.04999999999999999]
TCL: Setting parameter firsttimestep to 0
TCL: Setting parameter alchLambda to 0.35
Info: NONBONDED TABLE R-SQUARED SPACING: 0.0625
Info: NONBONDED TABLE SIZE: 705 POINTS
TCL: Setting parameter alchLambda2 to 0.39999999999999997
Info: NONBONDED TABLE R-SQUARED SPACING: 0.0625
Info: NONBONDED TABLE SIZE: 705 POINTS
TCL: Running for 1500000 steps
ETITLE: TS BOND ANGLE DIHED IMPRP ELECT VDW BOUNDARY MISC KINETIC TOTAL TEMP POTENTIAL TOTALAVG TEMPAVG PRESSURE GPRESSURE VOLUME PRESSAVG GPRESSAVG
ENERGY: 0 1.4728 11.0586 4.5762 0.0000 -10633.0471 1372.5697 0.0000 0.0000 1722.3271 -7521.0427 292.5618 -9243.3698 -7521.0427 292.5618 -840.9976 -753.6841 30614.9468 -840.9976 -753.6841
ENERGY: 300000 6.2834 14.3652 4.8152 0.0000 -10598.7616 1364.0172 0.0000 0.0000 1760.3468 -7448.9338 299.0200 -9209.2806 -7470.0945 296.1807 -704.4910 -649.9855 30472.5004 -587.3303 -524.8201
ENERGY: 600000 1.8291 12.2453 3.1773 0.0000 -10516.6714 1366.4139 0.0000 0.0000 1713.3012 -7419.7047 291.0287 -9133.0059 -7456.2705 296.3684 -425.6471 -379.9816 30402.1554 -403.2959 -349.3765
ENERGY: 900000 2.5206 20.5867 4.1867 0.0000 -10701.1980 1409.7130 0.0000 0.0000 1750.4944 -7513.6965 297.3465 -9264.1909 -7447.2316 298.2183 -437.6355 -404.6931 30439.2962 -298.6854 -247.1248
ENERGY: 1200000 0.5184 6.6667 3.5194 0.0000 -10791.9209 1514.7606 0.0000 0.0000 1777.1531 -7489.3027 301.8748 -9266.4558 -7451.2117 298.8333 807.8326 806.4287 29904.2885 -108.7113 -67.1221
ENERGY: 1500000 3.3186 14.5478 5.6758 0.0000 -10554.8371 1406.5088 0.0000 0.0000 1778.2456 -7346.5404 302.0604 -9124.7860 -7442.4871 298.8947 -58.1619 -10.2595 30696.2837 -78.4840 -26.7065
TCL: Running FEP window   9: Lambda1 0.39999999999999997 Lambda2 0.44999999999999996 [dLambda 0.04999999999999999]
TCL: Setting parameter firsttimestep to 0
TCL: Setting parameter alchLambda to 0.39999999999999997
Info: NONBONDED TABLE R-SQUARED SPACING: 0.0625
Info: NONBONDED TABLE SIZE: 705 POINTS
TCL: Setting parameter alchLambda2 to 0.44999999999999996
Info: NONBONDED TABLE R-SQUARED SPACING: 0.0625
Info: NONBONDED TABLE SIZE: 705 POINTS
TCL: Running for 1500000 steps
ETITLE: TS BOND ANGLE DIHED IMPRP ELECT VDW BOUNDARY MISC KINETIC TOTAL TEMP POTENTIAL TOTALAVG TEMPAVG PRESSURE GPRESSURE VOLUME PRESSAVG GPRESSAVG
ENERGY: 0 3.3186 14.5478 5.6758 0.0000 -10554.8385 1405.9733 0.0000 0.0000 1777.3740 -7347.9489 301.9123 -9125.3229 -7347.9489 301.9123 -90.6050 -6.8854 30696.2837 -90.6050 -6.8854
ENERGY: 300000 2.4041 11.1073 2.6992 0.0000 -10730.4406 1415.6161 0.0000 0.0000 1786.8843 -7511.7298 303.5278 -9298.6141 -7426.9390 300.8547 -166.8847 -85.0257 29752.8385 -202.4387 -116.6219
ENERGY: 600000 3.1131 15.6589 6.7181 0.0000 -10654.8899 1485.6641 0.0000 0.0000 1806.6672 -7337.0685 306.8882 -9143.7357 -7430.6015 300.1345 542.4000 668.5049 30268.0497 10.1298 99.0851
ENERGY: 900000 1.3701 16.3273 6.9284 0.0000 -10659.9311 1475.0403 0.0000 0.0000 1813.0463 -7347.2188 307.9718 -9160.2650 -7424.1047 298.8118 281.6716 371.7585 30718.9578 38.3733 127.9489
ENERGY: 1200000 4.3546 16.8977 3.9496 0.0000 -10650.3511 1461.6365 0.0000 0.0000 1767.6200 -7395.8926 300.2555 -9163.5126 -7427.7344 299.1063 415.9157 465.8389 30437.1223 86.3154 169.1567
ENERGY: 1500000 3.8015 8.3344 4.9140 0.0000 -10561.5504 1375.5415 0.0000 0.0000 1761.7156 -7407.2434 299.2525 -9168.9590 -7419.5071 299.7689 -209.9164 -203.9354 30126.1271 80.9054 155.6090
TCL: Running FEP window  10: Lambda1 0.44999999999999996 Lambda2 0.49999999999999994 [dLambda 0.04999999999999999]
TCL: Setting parameter firsttimestep to 0
TCL: Setting parameter alchLambda to 0.44999999999999996
Info: NONBONDED TABLE R-SQUARED SPACING: 0.0625
Info: NONBONDED TABLE SIZE: 705 POINTS
TCL: Setting parameter alchLambda2 to 0.49999999999999994
Info: NONBONDED TABLE R-SQUARED SPACING: 0.0625
Info: NONBONDED TABLE SIZE: 705 POINTS
TCL: Running for 1500000 steps
ETITLE: TS BOND ANGLE DIHED IMPRP ELECT VDW BOUNDARY MISC KINETIC TOTAL TEMP POTENTIAL TOTALAVG TEMPAVG PRESSURE GPRESSURE VOLUME PRESSAVG GPRESSAVG
ENERGY: 0 3.8015 8.3344 4.9140 0.0000 -10561.5488 1376.3557 0.0000 0.0000 1760.8325 -7407.3107 299.1025 -9168.1432 -7407.3107 299.1025 -271.4308 -189.4197 30126.1271 -271.4308 -189.4197
ENERGY: 300000 2.7293 12.4067 3.3967 0.0000 -10626.4132 1390.8539 0.0000 0.0000 1703.8742 -7513.1525 289.4273 -9217.0267 -7422.8662 297.0785 -439.8546 -392.0519 30608.3841 -255.2650 -190.4848
ENERGY: 600000 1.2930 12.5675 6.2373 0.0000 -10461.7384 1344.3756 0.0000 0.0000 1743.4645 -7353.8005 296.1523 -9097.2650 -7432.2459 296.9825 -542.0985 -462.4242 30492.7558 -133.4829 -74.8032
ENERGY: 900000 2.6023 14.2654 3.4673 0.0000 -10509.2790 1332.2840 0.0000 0.0000 1817.0309 -7339.6293 308.6486 -9156.6602 -7423.8712 298.5679 -813.6930 -734.1872 30728.3111 -120.2562 -63.9270
ENERGY: 1200000 1.5148 15.4848 3.9718 0.0000 -10675.7326 1426.7131 0.0000 0.0000 1819.7639 -7408.2842 309.1129 -9228.0481 -7420.6853 299.7359 -181.3020 -157.4085 30603.5777 -167.9776 -107.9086
ENERGY: 1500000 1.7444 13.5161 4.2239 0.0000 -10898.4955 1613.1887 0.0000 0.0000 1782.9279 -7482.8945 302.8557 -9265.8224 -7431.4748 300.4555 1411.1946 1438.2696 29886.2940 -24.5977 31.5359
TCL: Running FEP window  11: Lambda1 0.49999999999999994 Lambda2 0.5499999999999999 [dLambda 0.04999999999999999]
TCL: Setting parameter firsttimestep to 0
TCL: Setting parameter alchLambda to 0.49999999999999994
Info: NONBONDED TABLE R-SQUARED SPACING: 0.0625
Info: NONBONDED TABLE SIZE: 705 POINTS
TCL: Setting parameter alchLambda2 to 0.5499999999999999
Info: NONBONDED TABLE R-SQUARED SPACING: 0.0625
Info: NONBONDED TABLE SIZE: 705 POINTS
TCL: Running for 1500000 steps
ETITLE: TS BOND ANGLE DIHED IMPRP ELECT VDW BOUNDARY MISC KINETIC TOTAL TEMP POTENTIAL TOTALAVG TEMPAVG PRESSURE GPRESSURE VOLUME PRESSAVG GPRESSAVG
ENERGY: 0 1.7444 13.5161 4.2239 0.0000 -10898.4958 1613.2943 0.0000 0.0000 1782.0368 -7483.6805 302.7044 -9265.7172 -7483.6805 302.7044 1372.3948 1449.2184 29886.2940 1372.3948 1449.2184
ENERGY: 300000 6.3917 12.2239 4.3243 0.0000 -10585.4561 1323.7244 0.0000 0.0000 1729.1912 -7509.6005 293.7278 -9238.7917 -7456.1467 300.5009 -896.6892 -833.5863 30252.3859 77.5080 134.7834
ENERGY: 600000 0.7540 10.5055 3.0249 0.0000 -10661.0674 1420.9515 0.0000 0.0000 1712.5986 -7513.2330 290.9093 -9225.8316 -7457.6086 298.7965 103.5412 116.7630 30001.9539 -37.2617 7.1265
ENERGY: 900000 3.3036 15.8197 4.2908 0.0000 -10647.9134 1425.4966 0.0000 0.0000 1726.4470 -7472.5557 293.2617 -9199.0026 -7447.9391 299.7899 134.0273 138.1072 30213.8241 -78.1770 -33.4493
ENERGY: 1200000 1.4250 10.5676 4.1003 0.0000 -10532.9983 1365.7040 0.0000 0.0000 1730.8943 -7420.3071 294.0171 -9151.2013 -7438.6305 299.8974 -346.1817 -279.3365 30386.0656 -146.6579 -103.5997
ENERGY: 1500000 4.7489 10.1614 4.8356 0.0000 -10711.6993 1454.0837 0.0000 0.0000 1755.7334 -7482.1362 298.2364 -9237.8697 -7446.8142 300.0784 -387.2637 -316.0309 30808.9607 -157.9926 -110.4483
TCL: Running FEP window  12: Lambda1 0.5499999999999999 Lambda2 0.6    [dLambda 0.050000000000000044]
TCL: Setting parameter firsttimestep to 0
TCL: Setting parameter alchLambda to 0.5499999999999999
Info: NONBONDED TABLE R-SQUARED SPACING: 0.0625
Info: NONBONDED TABLE SIZE: 705 POINTS
TCL: Setting parameter alchLambda2 to 0.6
Info: NONBONDED TABLE R-SQUARED SPACING: 0.0625
Info: NONBONDED TABLE SIZE: 705 POINTS
TCL: Running for 1500000 steps
ETITLE: TS BOND ANGLE DIHED IMPRP ELECT VDW BOUNDARY MISC KINETIC TOTAL TEMP POTENTIAL TOTALAVG TEMPAVG PRESSURE GPRESSURE VOLUME PRESSAVG GPRESSAVG
ENERGY: 0 4.7489 10.1614 4.8356 0.0000 -10711.5250 1454.0073 0.0000 0.0000 1754.8554 -7482.9163 298.0872 -9237.7718 -7482.9163 298.0872 -394.7469 -307.2663 30808.9607 -394.7469 -307.2663
ENERGY: 300000 1.0453 15.3011 4.9879 0.0000 -10766.1186 1451.4486 0.0000 0.0000 1767.6790 -7525.6567 300.2655 -9293.3357 -7431.8281 304.8407 -27.8850 -2.7420 30375.1469 -8.0680 53.1669
ENERGY: 600000 3.7055 10.2547 3.1140 0.0000 -10638.7202 1430.7633 0.0000 0.0000 1765.1654 -7425.7173 299.8385 -9190.8826 -7444.9781 301.2061 -315.9991 -239.2433 30615.5720 46.1029 97.5765
ENERGY: 900000 3.8866 13.2672 4.1439 0.0000 -10632.7718 1389.2425 0.0000 0.0000 1811.3599 -7410.8717 307.6853 -9222.2316 -7432.0444 302.0090 -236.4110 -230.8921 30131.4837 28.4701 82.3871
ENERGY: 1200000 2.2705 12.9012 4.1242 0.0000 -10735.3292 1466.4307 0.0000 0.0000 1717.3847 -7532.2179 291.7223 -9249.6027 -7448.3151 301.5008 185.9587 257.2512 30153.5153 -28.7316 27.6064
ENERGY: 1500000 1.6918 14.2868 6.0131 0.0000 -10682.8505 1393.8472 0.0000 0.0000 1824.3787 -7442.6328 309.8968 -9267.0115 -7448.3234 301.8986 -495.9520 -500.4039 30600.7630 -90.2839 -33.3821
TCL: Running FEP window  13: Lambda1 0.6    Lambda2 0.65   [dLambda 0.050000000000000044]
TCL: Setting parameter firsttimestep to 0
TCL: Setting parameter alchLambda to 0.6
Info: NONBONDED TABLE R-SQUARED SPACING: 0.0625
Info: NONBONDED TABLE SIZE: 705 POINTS
TCL: Setting parameter alchLambda2 to 0.65
Info: NONBONDED TABLE R-SQUARED SPACING: 0.0625
Info: NONBONDED TABLE SIZE: 705 POINTS
TCL: Running for 1500000 steps
ETITLE: TS BOND ANGLE DIHED IMPRP ELECT VDW BOUNDARY MISC KINETIC TOTAL TEMP POTENTIAL TOTALAVG TEMPAVG PRESSURE GPRESSURE VOLUME PRESSAVG GPRESSAVG
ENERGY: 0 1.6918 14.2868 6.0131 0.0000 -10683.0688 1394.1579 0.0000 0.0000 1823.4748 -7443.4443 309.7432 -9266.9191 -7443.4443 309.7432 -577.5621 -487.0933 30600.7630 -577.5621 -487.0933
ENERGY: 300000 4.6681 10.0630 2.9711 0.0000 -10624.1423 1389.3193 0.0000 0.0000 1809.3827 -7407.7380 307.3495 -9217.1207 -7408.7974 306.0730 -187.6375 -147.3711 30329.4744 -375.0793 -303.3151
ENERGY: 600000 1.1631 11.6600 3.6812 0.0000 -10616.2973 1424.4730 0.0000 0.0000 1727.4865 -7447.8335 293.4382 -9175.3200 -7437.9922 302.7481 183.6058 233.9848 30257.1019 -254.2423 -184.6234
ENERGY: 900000 3.2666 15.0555 4.0777 0.0000 -10486.8023 1321.9444 0.0000 0.0000 1807.1030 -7335.3551 306.9622 -9142.4581 -7428.2796 303.3774 -767.1019 -721.2896 30824.0315 -217.9844 -147.2959
ENERGY: 1200000 3.3145 15.8274 3.7354 0.0000 -10548.5159 1393.0472 0.0000 0.0000 1743.9439 -7388.6474 296.2338 -9132.5914 -7426.9958 302.3738 -143.9544 -127.1367 30690.2477 -268.8561 -204.4884
ENERGY: 1500000 1.5155 12.2992 6.5781 0.0000 -10600.3929 1434.5310 0.0000 0.0000 1715.9776 -7429.4914 291.4833 -9145.4691 -7437.1083 300.8593 318.4647 350.4882 30609.1413 -228.7541 -166.6278
TCL: Running FEP window  14: Lambda1 0.65   Lambda2 0.7000000000000001 [dLambda 0.050000000000000044]
TCL: Setting parameter firsttimestep to 0
TCL: Setting parameter alchLambda to 0.65
Info: NONBONDED TABLE R-SQUARED SPACING: 0.0625
Info: NONBONDED TABLE SIZE: 705 POINTS
TCL: Setting parameter alchLambda2 to 0.7000000000000001
Info: NONBONDED TABLE R-SQUARED SPACING: 0.0625
Info: NONBONDED TABLE SIZE: 705 POINTS
TCL: Running for 1500000 steps
ETITLE: TS BOND ANGLE DIHED IMPRP ELECT VDW BOUNDARY MISC KINETIC TOTAL TEMP POTENTIAL TOTALAVG TEMPAVG PRESSURE GPRESSURE VOLUME PRESSAVG GPRESSAVG
ENERGY: 0 1.5155 12.2992 6.5781 0.0000 -10600.6032 1434.5956 0.0000 0.0000 1715.1274 -7430.4874 291.3389 -9145.6148 -7430.4874 291.3389 296.3342 362.4339 30609.1413 296.3342 362.4339
ENERGY: 300000 4.0927 12.8596 3.8423 0.0000 -10588.3325 1429.8322 0.0000 0.0000 1733.3242 -7404.3814 294.4299 -9137.7057 -7415.1993 296.5666 83.2299 156.6340 30441.6229 173.1734 219.0157
ENERGY: 600000 1.5555 14.5107 4.0314 0.0000 -10533.5490 1339.3309 0.0000 0.0000 1787.2227 -7386.8978 303.5853 -9174.1205 -7403.3793 300.2161 -692.1908 -659.7353 30666.6968 -67.3519 -28.7046
ENERGY: 900000 0.9444 14.2963 5.4678 0.0000 -10684.9930 1417.3551 0.0000 0.0000 1816.5934 -7430.3360 308.5743 -9246.9294 -7411.3891 302.5242 -406.5567 -256.3007 30725.1913 -78.9092 -32.0296
ENERGY: 1200000 3.6296 12.4958 6.6115 0.0000 -10785.8749 1465.6558 0.0000 0.0000 1811.9126 -7485.5696 307.7792 -9297.4822 -7432.0409 302.0839 84.3041 159.8768 30056.5904 -28.6342 18.7526
ENERGY: 1500000 1.1217 10.9261 4.8884 0.0000 -10593.5499 1425.9641 0.0000 0.0000 1785.7044 -7364.9453 303.3274 -9150.6496 -7433.9522 302.7204 151.5848 253.0342 30382.6918 -14.6964 35.5631
TCL: Running FEP window  15: Lambda1 0.7000000000000001 Lambda2 0.7500000000000001 [dLambda 0.050000000000000044]
TCL: Setting parameter firsttimestep to 0
TCL: Setting parameter alchLambda to 0.7000000000000001
Info: NONBONDED TABLE R-SQUARED SPACING: 0.0625
Info: NONBONDED TABLE SIZE: 705 POINTS
TCL: Setting parameter alchLambda2 to 0.7500000000000001
Info: NONBONDED TABLE R-SQUARED SPACING: 0.0625
Info: NONBONDED TABLE SIZE: 705 POINTS
TCL: Running for 1500000 steps
ETITLE: TS BOND ANGLE DIHED IMPRP ELECT VDW BOUNDARY MISC KINETIC TOTAL TEMP POTENTIAL TOTALAVG TEMPAVG PRESSURE GPRESSURE VOLUME PRESSAVG GPRESSAVG
ENERGY: 0 1.1217 10.9261 4.8884 0.0000 -10594.0996 1427.0874 0.0000 0.0000 1784.7981 -7365.2779 303.1734 -9150.0761 -7365.2779 303.1734 198.7461 276.8163 30382.6918 198.7461 276.8163
ENERGY: 300000 3.0684 16.2903 4.6009 0.0000 -10622.8715 1451.5044 0.0000 0.0000 1747.1024 -7400.3051 296.7703 -9147.4075 -7419.5613 298.8606 -145.0176 30.8078 30825.4787 -116.4294 -3.6377
ENERGY: 600000 0.7960 14.9511 3.8077 0.0000 -10756.1623 1494.7750 0.0000 0.0000 1725.5187 -7516.3138 293.1040 -9241.8325 -7438.1685 298.5413 417.5436 419.5278 30337.2571 93.1961 183.5341
ENERGY: 900000 1.8838 9.4744 6.0607 0.0000 -10790.5871 1552.6885 0.0000 0.0000 1767.4524 -7453.0272 300.2270 -9220.4797 -7442.8572 298.7788 911.9317 913.7169 30585.8866 161.8694 244.9016
ENERGY: 1200000 3.0452 10.7267 3.3628 0.0000 -10776.7195 1446.2170 0.0000 0.0000 1704.4301 -7608.9378 289.5218 -9313.3679 -7455.8474 298.7962 -412.9684 -355.2023 30492.7895 45.2851 120.0260
ENERGY: 1500000 1.2430 15.1009 7.3591 0.0000 -10666.8924 1439.3817 0.0000 0.0000 1727.2616 -7476.5461 293.4000 -9203.8077 -7456.2626 298.3253 -67.3920 69.1290 30395.8258 61.4447 135.2646
TCL: Running FEP window  16: Lambda1 0.7500000000000001 Lambda2 0.8000000000000002 [dLambda 0.050000000000000044]
TCL: Setting parameter firsttimestep to 0
TCL: Setting parameter alchLambda to 0.7500000000000001
Info: NONBONDED TABLE R-SQUARED SPACING: 0.0625
Info: NONBONDED TABLE SIZE: 705 POINTS
TCL: Setting parameter alchLambda2 to 0.8000000000000002
Info: NONBONDED TABLE R-SQUARED SPACING: 0.0625
Info: NONBONDED TABLE SIZE: 705 POINTS
TCL: Running for 1500000 steps
ETITLE: TS BOND ANGLE DIHED IMPRP ELECT VDW BOUNDARY MISC KINETIC TOTAL TEMP POTENTIAL TOTALAVG TEMPAVG PRESSURE GPRESSURE VOLUME PRESSAVG GPRESSAVG
ENERGY: 0 1.2430 15.1009 7.3591 0.0000 -10667.6711 1440.2199 0.0000 0.0000 1726.3548 -7477.3935 293.2460 -9203.7482 -7477.3935 293.2460 15.9019 87.8076 30395.8258 15.9019 87.8076
ENERGY: 300000 4.9714 12.3203 4.5918 0.0000 -10722.0074 1391.8839 0.0000 0.0000 1779.5707 -7528.6693 302.2855 -9308.2399 -7456.7683 301.0265 -606.1369 -568.9500 30269.2178 206.0695 254.3334
ENERGY: 600000 2.6323 18.0094 4.7996 0.0000 -10426.7619 1285.8309 0.0000 0.0000 1811.6519 -7303.8378 307.7349 -9115.4897 -7449.3436 299.8468 -975.5019 -969.5342 30830.9776 6.6861 52.9162
ENERGY: 900000 8.6345 14.5217 5.9112 0.0000 -10607.9304 1406.4671 0.0000 0.0000 1763.2861 -7409.1099 299.5193 -9172.3960 -7443.2709 299.6700 -481.4274 -372.3913 30655.4400 -98.9031 -46.5566
ENERGY: 1200000 0.5915 13.1381 2.9168 0.0000 -10734.4646 1439.1596 0.0000 0.0000 1834.1127 -7444.5459 311.5502 -9278.6586 -7443.1321 301.6356 -253.9921 -198.7303 30904.0303 -100.7872 -49.2974
ENERGY: 1500000 3.0325 16.2354 4.1335 0.0000 -10677.6893 1396.9627 0.0000 0.0000 1706.5876 -7550.7377 289.8883 -9257.3253 -7454.6283 300.7695 -525.3312 -441.1455 30466.3665 -32.1845 18.1021
TCL: Running FEP window  17: Lambda1 0.8000000000000002 Lambda2 0.8500000000000002 [dLambda 0.050000000000000044]
TCL: Setting parameter firsttimestep to 0
TCL: Setting parameter alchLambda to 0.8000000000000002
Info: NONBONDED TABLE R-SQUARED SPACING: 0.0625
Info: NONBONDED TABLE SIZE: 705 POINTS
TCL: Setting parameter alchLambda2 to 0.8500000000000002
Info: NONBONDED TABLE R-SQUARED SPACING: 0.0625
Info: NONBONDED TABLE SIZE: 705 POINTS
TCL: Running for 1500000 steps
ETITLE: TS BOND ANGLE DIHED IMPRP ELECT VDW BOUNDARY MISC KINETIC TOTAL TEMP POTENTIAL TOTALAVG TEMPAVG PRESSURE GPRESSURE VOLUME PRESSAVG GPRESSAVG
ENERGY: 0 3.0324 16.2354 4.1335 0.0000 -10678.0510 1396.4375 0.0000 0.0000 1705.7037 -7552.5084 289.7381 -9258.2122 -7552.5084 289.7381 -519.0896 -435.6469 30466.3665 -519.0896 -435.6469
ENERGY: 300000 4.0610 7.8469 4.1145 0.0000 -10769.3123 1438.0139 0.0000 0.0000 1768.2075 -7547.0684 300.3553 -9315.2759 -7501.8416 298.1700 -493.0719 -389.5149 30665.3211 -242.5774 -169.1129
ENERGY: 600000 2.9374 8.9786 3.0689 0.0000 -10667.9376 1388.6542 0.0000 0.0000 1772.7931 -7491.5053 301.1342 -9264.2984 -7494.1084 298.0311 -274.9235 -222.1069 29981.0302 -256.6336 -188.9944
ENERGY: 900000 1.5989 20.7237 4.6027 0.0000 -10556.0220 1347.9083 0.0000 0.0000 1747.2800 -7433.9084 296.8004 -9181.1884 -7480.1206 297.3043 -341.8911 -323.3693 30089.0221 -192.8492 -128.2442
ENERGY: 1200000 0.6390 9.9552 5.2442 0.0000 -10615.2060 1442.3232 0.0000 0.0000 1752.7292 -7404.3152 297.7261 -9157.0443 -7459.4376 297.2610 270.5798 359.8555 30475.4936 -155.7311 -91.0278
ENERGY: 1500000 2.7063 13.6224 6.2269 0.0000 -10730.3674 1478.4623 0.0000 0.0000 1818.8392 -7410.5103 308.9558 -9229.3496 -7445.2057 298.4764 354.3589 407.0784 30290.6537 -82.1329 -14.2313
TCL: Running FEP window  18: Lambda1 0.8500000000000002 Lambda2 0.9000000000000002 [dLambda 0.050000000000000044]
TCL: Setting parameter firsttimestep to 0
TCL: Setting parameter alchLambda to 0.8500000000000002
Info: NONBONDED TABLE R-SQUARED SPACING: 0.0625
Info: NONBONDED TABLE SIZE: 705 POINTS
TCL: Setting parameter alchLambda2 to 0.9000000000000002
Info: NONBONDED TABLE R-SQUARED SPACING: 0.0625
Info: NONBONDED TABLE SIZE: 705 POINTS
TCL: Running for 1500000 steps
ETITLE: TS BOND ANGLE DIHED IMPRP ELECT VDW BOUNDARY MISC KINETIC TOTAL TEMP POTENTIAL TOTALAVG TEMPAVG PRESSURE GPRESSURE VOLUME PRESSAVG GPRESSAVG
ENERGY: 0 2.7063 13.6224 6.2269 0.0000 -10731.0632 1478.5223 0.0000 0.0000 1817.9358 -7412.0494 308.8023 -9229.9853 -7412.0494 308.8023 339.2724 421.1548 30290.6537 339.2724 421.1548
ENERGY: 300000 2.3911 15.4504 4.7946 0.0000 -10636.4924 1436.1061 0.0000 0.0000 1746.4078 -7431.3423 296.6523 -9177.7501 -7425.4708 299.7778 130.5188 165.2672 30700.0906 -287.4042 -235.4968
ENERGY: 600000 2.2140 14.2407 7.0440 0.0000 -10865.0606 1491.2176 0.0000 0.0000 1719.1705 -7631.1738 292.0256 -9350.3442 -7445.3619 299.6092 274.6559 258.4200 30031.4265 -147.8544 -97.0462
ENERGY: 900000 1.2538 10.6807 5.5628 0.0000 -10646.0524 1476.4610 0.0000 0.0000 1748.9367 -7403.1574 297.0818 -9152.0941 -7447.2998 300.1304 718.9495 722.9316 30401.8090 -49.3269 9.9841
ENERGY: 1200000 2.6562 9.8717 7.1986 0.0000 -10723.8628 1437.0885 0.0000 0.0000 1713.1151 -7553.9326 290.9970 -9267.0477 -7458.4974 299.1855 -283.2213 -246.3770 30368.9822 -73.3144 -18.2508
ENERGY: 1500000 3.3565 11.1844 4.3150 0.0000 -10737.8351 1515.9937 0.0000 0.0000 1825.1188 -7377.8667 310.0225 -9202.9855 -7460.5519 299.1706 1154.9445 1185.4969 29938.3920 -25.7852 27.7090
TCL: Running FEP window  19: Lambda1 0.9000000000000002 Lambda2 0.9500000000000003 [dLambda 0.050000000000000044]
TCL: Setting parameter firsttimestep to 0
TCL: Setting parameter alchLambda to 0.9000000000000002
Info: NONBONDED TABLE R-SQUARED SPACING: 0.0625
Info: NONBONDED TABLE SIZE: 705 POINTS
TCL: Setting parameter alchLambda2 to 0.9500000000000003
Info: NONBONDED TABLE R-SQUARED SPACING: 0.0625
Info: NONBONDED TABLE SIZE: 705 POINTS
TCL: Running for 1500000 steps
ETITLE: TS BOND ANGLE DIHED IMPRP ELECT VDW BOUNDARY MISC KINETIC TOTAL TEMP POTENTIAL TOTALAVG TEMPAVG PRESSURE GPRESSURE VOLUME PRESSAVG GPRESSAVG
ENERGY: 0 3.3565 11.1844 4.3150 0.0000 -10738.3789 1516.8911 0.0000 0.0000 1824.2109 -7378.4210 309.8682 -9202.6319 -7378.4210 309.8682 1124.6545 1214.5251 29938.3920 1124.6545 1214.5251
ENERGY: 300000 4.2850 15.4653 5.3524 0.0000 -10610.7956 1413.3290 0.0000 0.0000 1743.8526 -7428.5111 296.2182 -9172.3638 -7432.3108 302.8267 -432.9946 -357.3739 30954.7747 151.9864 235.7599
ENERGY: 600000 2.0173 25.6587 4.4177 0.0000 -10432.5523 1333.1798 0.0000 0.0000 1790.0304 -7277.2485 304.0622 -9067.2789 -7391.7387 303.7135 -634.7903 -525.0530 31055.2781 22.7391 111.5221
ENERGY: 900000 2.4881 12.6357 7.2349 0.0000 -10776.0292 1487.2513 0.0000 0.0000 1723.3301 -7543.0890 292.7322 -9266.4191 -7415.1984 302.2120 339.9521 350.4607 30274.8121 174.1873 250.2202
ENERGY: 1200000 1.2466 11.6162 4.3995 0.0000 -10704.7681 1423.0226 0.0000 0.0000 1754.0734 -7510.4099 297.9544 -9264.4833 -7428.6899 300.8249 -241.9583 -129.0728 30712.5637 132.6901 208.1153
ENERGY: 1500000 1.4785 14.0545 3.8234 0.0000 -10651.5760 1481.0561 0.0000 0.0000 1709.1420 -7442.0216 290.3221 -9151.1635 -7431.9206 300.1998 642.0796 679.5842 30365.0211 151.9840 223.9594
TCL: Running FEP window  20: Lambda1 0.9500000000000003 Lambda2 1.0    [dLambda 0.04999999999999971]
TCL: Setting parameter firsttimestep to 0
TCL: Setting parameter alchLambda to 0.9500000000000003
Info: NONBONDED TABLE R-SQUARED SPACING: 0.0625
Info: NONBONDED TABLE SIZE: 705 POINTS
TCL: Setting parameter alchLambda2 to 1.0
Info: NONBONDED TABLE R-SQUARED SPACING: 0.0625
Info: NONBONDED TABLE SIZE: 705 POINTS
TCL: Running for 1500000 steps
ETITLE: TS BOND ANGLE DIHED IMPRP ELECT VDW BOUNDARY MISC KINETIC TOTAL TEMP POTENTIAL TOTALAVG TEMPAVG PRESSURE GPRESSURE VOLUME PRESSAVG GPRESSAVG
ENERGY: 0 1.4785 14.0545 3.8234 0.0000 -10651.9657 1480.6502 0.0000 0.0000 1708.2758 -7443.6834 290.1750 -9151.9591 -7443.6834 290.1750 609.7323 688.6005 30365.0211 609.7323 688.6005
ENERGY: 300000 2.8603 15.4078 4.6950 0.0000 -10634.1837 1449.2248 0.0000 0.0000 1756.3853 -7405.6105 298.3471 -9161.9958 -7471.3269 297.8228 249.4094 309.2429 30651.7382 -27.1772 25.9525
ENERGY: 600000 1.3671 10.7380 6.1743 0.0000 -10632.3681 1368.4877 0.0000 0.0000 1737.1938 -7508.4072 295.0872 -9245.6010 -7462.9181 298.7781 -448.9169 -316.3368 30264.7350 -121.9679 -55.9013
ENERGY: 900000 1.9457 14.9705 2.9879 0.0000 -10701.2207 1446.6997 0.0000 0.0000 1751.9102 -7482.7067 297.5869 -9234.6169 -7463.1457 299.3530 246.6989 259.9723 30324.2391 -87.3729 -23.4790
ENERGY: 1200000 2.5180 14.7236 3.9237 0.0000 -10622.0878 1374.2065 0.0000 0.0000 1736.5543 -7490.1617 294.9785 -9226.7160 -7470.8427 299.2775 -660.5898 -549.7392 30477.3084 -116.9512 -58.0553
ENERGY: 1500000 2.4406 12.0679 3.7174 0.0000 -10725.3137 1413.9382 0.0000 0.0000 1767.2211 -7525.9286 300.1877 -9293.1497 -7481.5854 298.6043 -188.6931 -79.2976 30173.4221 -18.4702 38.0248
TCL: Exiting due to exit command.
