Info: SIMULATION PARAMETERS:
Info: TIMESTEP               2
Info: NUMBER OF STEPS        0
Info: STEPS PER CYCLE        10
Info: PERIODIC CELL BASIS 1  32.6654 0 0
Info: PERIODIC CELL BASIS 2  0 27.5485 0
Info: PERIODIC CELL BASIS 3  0 0 34.4731
Info: PERIODIC CELL CENTER   0 0 0
Info: WRAPPING WATERS AROUND PERIODIC BOUNDARIES ON OUTPUT.
Info: WRAPPING ALL CLUSTERS AROUND PERIODIC BOUNDARIES ON OUTPUT.
Info: FIRST LDB TIMESTEP     50
Info: LAST LDB TIMESTEP     -1
Info: HOM BACKGROUND SCALING 1
Info: PME BACKGROUND SCALING 1
Info: MIN ATOMS PER PATCH    40
Info: EMPTY PATCH LOAD       40 ATOMS
Info: VELOCITY FILE          mobley_7912193_equil.vel
Info: CENTER OF MASS MOVING INITIALLY? NO
Info: DIELECTRIC             1
Info: EXCLUDE                SCALED ONE-FOUR
Info: 1-4 ELECTROSTATICS SCALED BY 0.833333
Info: MODIFIED 1-4 VDW PARAMETERS WILL BE USED
Info: DCD FILENAME           mobley_7912193_prod.dcd
Info: DCD FREQUENCY          100000
Info: DCD FIRST STEP         100000
Info: DCD FILE WILL CONTAIN UNIT CELL DATA
Info: XST FILENAME           mobley_7912193_prod.xst
Info: XST FREQUENCY          100000
Info: NO VELOCITY DCD OUTPUT
Info: NO FORCE DCD OUTPUT
Info: OUTPUT FILENAME        mobley_7912193_prod
Info: BINARY OUTPUT FILES WILL BE USED
Info: RESTART FILENAME       mobley_7912193_prod.restart
Info: RESTART FREQUENCY      100000
Info: BINARY RESTART FILES WILL BE USED
Info: CUTOFF                 9
Info: PAIRLIST DISTANCE      11
Info: PAIRLIST SHRINK RATE   0.01
Info: PAIRLIST GROW RATE     0.01
Info: PAIRLIST TRIGGER       0.3
Info: PAIRLISTS PER CYCLE    2
Info: PAIRLISTS ENABLED
Info: MARGIN                 2
Info: HYDROGEN GROUP CUTOFF  2.5
Info: PATCH DIMENSION        15.5
Info: ENERGY OUTPUT STEPS    100000
Info: ENERGY EVALUATION STEPS    100000
Info: OUTPUT ENERGY PRECISION 4
Info: CROSSTERM ENERGY INCLUDED IN DIHEDRAL
Info: TIMING OUTPUT STEPS    1000000
Info: PRESSURE OUTPUT STEPS  100000
Info: ALCHEMICAL FEP ON
Info: FEP CURRENT LAMBDA VALUE     0
Info: FEP COMPARISON LAMBDA VALUE  0.05
Info: FEP INTRA-ALCHEMICAL NON-BONDED INTERACTIONS WILL BE RETAINED
Info: FEP INTRA-ALCHEMICAL BONDED INTERACTIONS WILL BE RETAINED
Info: FEP VDW SHIFTING COEFFICIENT 5
Info: FEP ELEC. ACTIVE FOR ANNIHILATED PARTICLES BETWEEN LAMBDA = 0 AND LAMBDA = 0.5
Info: FEP ELEC. ACTIVE FOR EXNIHILATED PARTICLES BETWEEN LAMBDA = 0.5 AND LAMBDA = 1
Info: FEP VDW ACTIVE FOR ANNIHILATED PARTICLES BETWEEN LAMBDA = 0 AND LAMBDA = 1
Info: FEP VDW ACTIVE FOR EXNIHILATED PARTICLES BETWEEN LAMBDA = 0 AND LAMBDA = 1
Info: FEP BOND ACTIVE FOR ANNIHILATED PARTICLES BETWEEN LAMBDA = 1 AND LAMBDA = 1
Info: FEP BOND ACTIVE FOR EXNIHILATED PARTICLES BETWEEN LAMBDA = 0 AND LAMBDA = 0
Info: LANGEVIN DYNAMICS ACTIVE
Info: LANGEVIN TEMPERATURE   300
Info: LANGEVIN USING BBK INTEGRATOR
Info: LANGEVIN DAMPING COEFFICIENT IS 1 INVERSE PS
Info: LANGEVIN DYNAMICS APPLIED TO HYDROGENS
Info: LANGEVIN PISTON PRESSURE CONTROL ACTIVE
Info:        TARGET PRESSURE IS 1.01325 BAR
Info:     OSCILLATION PERIOD IS 50 FS
Info:             DECAY TIME IS 25 FS
Info:     PISTON TEMPERATURE IS 300 K
Info:       PRESSURE CONTROL IS GROUP-BASED
Info:    INITIAL STRAIN RATE IS 0.000166789 0.000166789 0.000166789
Info:       CELL FLUCTUATION IS ISOTROPIC
Info: PARTICLE MESH EWALD (PME) ACTIVE
Info: PME TOLERANCE               1e-06
Info: PME EWALD COEFFICIENT       0.348832
Info: PME INTERPOLATION ORDER     4
Info: PME GRID DIMENSIONS         36 28 36
Info: PME MAXIMUM GRID SPACING    1
Info: PME CALCULATION WILL BE PERFORMED ON GPU
Info: FULL ELECTROSTATIC EVALUATION FREQUENCY      2
Info: USING VERLET I (r-RESPA) MTS SCHEME.
Info: C1 SPLITTING OF LONG RANGE ELECTROSTATICS
Info: PLACING ATOMS IN PATCHES BY HYDROGEN GROUPS
Info: RIGID BONDS TO HYDROGEN : ALL
Info:         ERROR TOLERANCE : 1e-08
Info:          MAX ITERATIONS : 100
Info: RIGID WATER USING SETTLE ALGORITHM
Info: RANDOM NUMBER SEED     1744011828
Info: USE HYDROGEN BONDS?    NO
Info: Using AMBER format force field!
Info: AMBER PARM FILE        mobley_7912193.prmtop
Info: COORDINATE PDB         mobley_7912193.pdb
Info: Exclusions will be read from PARM file!
Info: SCNB (VDW SCALING)     2
Info: USING ARITHMETIC MEAN TO COMBINE L-J SIGMA PARAMETERS
Info: BINARY COORDINATES     mobley_7912193_equil.coor
Info: SUMMARY OF PARAMETERS:
Info: 13 BONDS
Info: 16 ANGLES
Info:   16 HARMONIC
Info:   0 COSINE-BASED
Info: 17 DIHEDRAL
Info: 0 IMPROPER
Info: 0 CROSSTERM
Info: 0 VDW
Info: 55 VDW_PAIRS
Info: 0 NBTHOLE_PAIRS
Info: To read alchdata from file: mobley_7912193.pdb
Info: To read alchflag data from column: 5
Info: STRUCTURE SUMMARY:
Info: 2992 ATOMS
Info: 2992 BONDS
Info: 47 ANGLES
Info: 75 DIHEDRALS
Info: 0 IMPROPERS
Info: 0 CROSSTERMS
Info: 3098 EXCLUSIONS
Info: 2978 RIGID BONDS
Info: ALCH: 0 ATOMS TO DISAPPEAR IN FINAL STATE
Info: ALCH: 28 ATOMS TO APPEAR IN FINAL STATE
Info: 5998 DEGREES OF FREEDOM
Info: 1002 HYDROGEN GROUPS
Info: 4 ATOMS IN LARGEST HYDROGEN GROUP
Info: 1002 MIGRATION GROUPS
Info: 4 ATOMS IN LARGEST MIGRATION GROUP
Info: TOTAL MASS = 17994 amu
Info: TOTAL CHARGE = -5.21541e-08 e
Info: MASS DENSITY = 0.963211 g/cm^3
Info: ATOM DENSITY = 0.0964484 atoms/A^3
Info: ADDED 0 IMPLICIT EXCLUSIONS
Info: NONBONDED TABLE R-SQUARED SPACING: 0.0625
Info: NONBONDED TABLE SIZE: 705 POINTS
Info: REMOVING COM VELOCITY -0.112875 -0.044545 -0.0243447
Info: Use 3D box decompostion in PME FFT.
Info: Updated CUDA force table with 4096 elements.
Info: Updated CUDA LJ table with 10 x 10 elements.
Info: Found 30 unique exclusion lists needing 116 bytes
TCL: Running for 1500000 steps
ETITLE: TS BOND ANGLE DIHED IMPRP ELECT VDW BOUNDARY MISC KINETIC TOTAL TEMP POTENTIAL TOTALAVG TEMPAVG PRESSURE GPRESSURE VOLUME PRESSAVG GPRESSAVG
ENERGY: 0 5.0803 13.1014 4.4751 0.0000 -10670.5038 1351.2879 0.0000 0.0000 1809.2682 -7487.2909 303.5896 -9296.5591 -7487.2909 303.5896 -693.0266 -601.1898 31021.7597 -693.0266 -601.1898
ENERGY: 300000 6.5686 9.7275 10.9886 0.0000 -10891.5623 1499.3628 0.0000 0.0000 1837.8449 -7527.0699 308.3847 -9364.9148 -7511.3762 303.4728 308.7860 349.0974 30505.6326 -363.6707 -308.7320
ENERGY: 600000 3.9209 13.2862 6.7346 0.0000 -10920.7423 1504.8603 0.0000 0.0000 1740.3367 -7651.6035 292.0231 -9391.9402 -7555.8008 299.0990 182.4378 216.8552 30327.9883 -141.0777 -87.8715
ENERGY: 900000 2.0503 14.1157 5.4130 0.0000 -10895.1799 1475.3653 0.0000 0.0000 1826.7011 -7571.5346 306.5148 -9398.2357 -7547.4607 299.4189 205.9929 229.9514 30331.2786 -100.1402 -41.1668
ENERGY: 1200000 3.3271 13.6771 6.5128 0.0000 -10734.6286 1363.3075 0.0000 0.0000 1797.1994 -7550.6048 301.5645 -9347.8042 -7538.3526 300.9604 -779.4240 -713.8577 30265.1858 -182.5176 -119.7030
ENERGY: 1500000 2.6342 8.7428 7.7976 0.0000 -10834.8139 1506.1361 0.0000 0.0000 1806.6381 -7502.8652 303.1483 -9309.5033 -7532.6193 301.2571 307.8698 395.2992 30675.5037 -150.5642 -88.7885
TCL: Running FEP window   2: Lambda1 0.05   Lambda2 0.1    [dLambda 0.05  ]
TCL: Setting parameter firsttimestep to 0
TCL: Setting parameter alchLambda to 0.05
Info: NONBONDED TABLE R-SQUARED SPACING: 0.0625
Info: NONBONDED TABLE SIZE: 705 POINTS
TCL: Setting parameter alchLambda2 to 0.1
Info: NONBONDED TABLE R-SQUARED SPACING: 0.0625
Info: NONBONDED TABLE SIZE: 705 POINTS
TCL: Running for 1500000 steps
ETITLE: TS BOND ANGLE DIHED IMPRP ELECT VDW BOUNDARY MISC KINETIC TOTAL TEMP POTENTIAL TOTALAVG TEMPAVG PRESSURE GPRESSURE VOLUME PRESSAVG GPRESSAVG
ENERGY: 0 2.6342 8.7428 7.7976 0.0000 -10834.8148 1509.5006 0.0000 0.0000 1805.7542 -7500.3854 303.0000 -9306.1396 -7500.3854 303.0000 320.3742 404.2167 30675.5037 320.3742 404.2167
ENERGY: 300000 7.0170 15.0700 13.8905 0.0000 -10775.1928 1445.7499 0.0000 0.0000 1773.2661 -7520.1994 297.5485 -9293.4655 -7545.6737 298.8917 127.0981 194.4124 30184.2910 91.5554 142.8288
ENERGY: 600000 5.2674 10.5574 8.5746 0.0000 -10702.8073 1436.0849 0.0000 0.0000 1782.1348 -7460.1882 299.0367 -9242.3230 -7523.5483 299.1303 -81.8316 20.7517 30959.6999 76.2120 131.9457
ENERGY: 900000 6.7373 12.5885 8.3274 0.0000 -10758.8903 1422.7328 0.0000 0.0000 1788.0664 -7520.4378 300.0320 -9308.5042 -7517.3680 299.5022 -388.1615 -327.1376 30790.8448 124.8369 188.9076
ENERGY: 1200000 4.3890 8.3593 10.2543 0.0000 -10675.9325 1405.6868 0.0000 0.0000 1767.3778 -7479.8651 296.5605 -9247.2429 -7513.9299 299.6669 92.1716 117.0794 30270.5520 174.4601 227.9952
ENERGY: 1500000 6.5894 10.4653 7.8671 0.0000 -10814.3785 1497.3157 0.0000 0.0000 1773.5484 -7518.5926 297.5959 -9292.1410 -7522.6848 299.6131 359.7296 395.1278 30649.4825 164.8819 219.0040
TCL: Running FEP window   3: Lambda1 0.1    Lambda2 0.15000000000000002 [dLambda 0.05000000000000002]
TCL: Setting parameter firsttimestep to 0
TCL: Setting parameter alchLambda to 0.1
Info: NONBONDED TABLE R-SQUARED SPACING: 0.0625
Info: NONBONDED TABLE SIZE: 705 POINTS
TCL: Setting parameter alchLambda2 to 0.15000000000000002
Info: NONBONDED TABLE R-SQUARED SPACING: 0.0625
Info: NONBONDED TABLE SIZE: 705 POINTS
TCL: Running for 1500000 steps
ETITLE: TS BOND ANGLE DIHED IMPRP ELECT VDW BOUNDARY MISC KINETIC TOTAL TEMP POTENTIAL TOTALAVG TEMPAVG PRESSURE GPRESSURE VOLUME PRESSAVG GPRESSAVG
ENERGY: 0 6.5894 10.4653 7.8671 0.0000 -10814.3793 1503.5599 0.0000 0.0000 1772.6250 -7513.2725 297.4410 -9285.8975 -7513.2725 297.4410 328.2335 408.4736 30649.4825 328.2335 408.4736
ENERGY: 300000 5.4592 9.0363 6.9255 0.0000 -10773.8999 1373.3841 0.0000 0.0000 1768.1115 -7610.9833 296.6836 -9379.0948 -7557.5605 298.5692 -629.7210 -602.7672 30560.7406 -101.5901 -32.8998
ENERGY: 600000 3.9722 7.2333 5.8511 0.0000 -10923.4927 1523.0173 0.0000 0.0000 1789.5463 -7593.8725 300.2803 -9383.4188 -7553.6162 300.5696 450.4133 508.4920 30360.7826 -123.1345 -45.0583
ENERGY: 900000 5.7882 14.3409 6.7483 0.0000 -10835.5819 1437.4331 0.0000 0.0000 1785.7437 -7585.5277 299.6422 -9371.2714 -7553.4034 300.9744 -407.1246 -317.6510 30298.0573 -109.3325 -37.1513
ENERGY: 1200000 5.0959 11.4428 7.4496 0.0000 -10864.1739 1446.5476 0.0000 0.0000 1836.8909 -7556.7472 308.2246 -9393.6381 -7548.4685 302.2938 -360.0810 -342.4447 30660.0036 -169.8012 -107.5111
ENERGY: 1500000 6.4322 11.0866 4.9228 0.0000 -10921.9563 1522.8469 0.0000 0.0000 1772.9851 -7603.6828 297.5014 -9376.6679 -7552.4684 301.3535 202.4802 263.3053 30424.9729 -93.9220 -33.5898
TCL: Running FEP window   4: Lambda1 0.15000000000000002 Lambda2 0.2    [dLambda 0.04999999999999999]
TCL: Setting parameter firsttimestep to 0
TCL: Setting parameter alchLambda to 0.15000000000000002
Info: NONBONDED TABLE R-SQUARED SPACING: 0.0625
Info: NONBONDED TABLE SIZE: 705 POINTS
TCL: Setting parameter alchLambda2 to 0.2
Info: NONBONDED TABLE R-SQUARED SPACING: 0.0625
Info: NONBONDED TABLE SIZE: 705 POINTS
TCL: Running for 1500000 steps
ETITLE: TS BOND ANGLE DIHED IMPRP ELECT VDW BOUNDARY MISC KINETIC TOTAL TEMP POTENTIAL TOTALAVG TEMPAVG PRESSURE GPRESSURE VOLUME PRESSAVG GPRESSAVG
ENERGY: 0 6.4322 11.0866 4.9228 0.0000 -10921.9570 1526.6915 0.0000 0.0000 1772.1080 -7600.7159 297.3542 -9372.8240 -7600.7159 297.3542 191.8311 284.5468 30424.9729 191.8311 284.5468
ENERGY: 300000 1.2258 10.9827 10.2951 0.0000 -10785.9660 1413.8109 0.0000 0.0000 1810.3838 -7539.2677 303.7768 -9349.6514 -7546.3171 301.6120 -142.2223 -92.1622 30364.8608 88.9667 152.6404
ENERGY: 600000 8.2215 12.9255 6.2988 0.0000 -10767.3150 1366.4343 0.0000 0.0000 1786.4959 -7586.9390 299.7685 -9373.4349 -7544.2343 300.0776 -1207.8593 -1093.1209 30820.0020 -243.1485 -169.3469
ENERGY: 900000 4.8554 7.5006 9.2258 0.0000 -10717.4111 1391.1957 0.0000 0.0000 1787.4725 -7517.1611 299.9323 -9304.6336 -7536.1834 300.3213 -664.4970 -603.4070 31123.9829 -224.8898 -147.5889
ENERGY: 1200000 3.1871 9.3543 6.9491 0.0000 -10703.5014 1476.2658 0.0000 0.0000 1783.8902 -7423.8548 299.3312 -9207.7450 -7532.1556 300.9063 380.3371 413.9933 30879.8797 -66.6085 8.1522
ENERGY: 1500000 5.0815 13.7305 7.8708 0.0000 -10935.1996 1566.0098 0.0000 0.0000 1780.8506 -7561.6565 298.8212 -9342.5071 -7535.8485 300.5385 688.9679 699.9109 30584.4026 -8.3680 63.8723
TCL: Running FEP window   5: Lambda1 0.2    Lambda2 0.25   [dLambda 0.04999999999999999]
TCL: Setting parameter firsttimestep to 0
TCL: Setting parameter alchLambda to 0.2
Info: NONBONDED TABLE R-SQUARED SPACING: 0.0625
Info: NONBONDED TABLE SIZE: 705 POINTS
TCL: Setting parameter alchLambda2 to 0.25
Info: NONBONDED TABLE R-SQUARED SPACING: 0.0625
Info: NONBONDED TABLE SIZE: 705 POINTS
TCL: Running for 1500000 steps
ETITLE: TS BOND ANGLE DIHED IMPRP ELECT VDW BOUNDARY MISC KINETIC TOTAL TEMP POTENTIAL TOTALAVG TEMPAVG PRESSURE GPRESSURE VOLUME PRESSAVG GPRESSAVG
ENERGY: 0 5.0815 13.7305 7.8708 0.0000 -10935.1996 1567.5505 0.0000 0.0000 1779.9793 -7560.9871 298.6750 -9340.9664 -7560.9871 298.6750 647.0405 712.2684 30584.4026 647.0405 712.2684
ENERGY: 300000 5.7908 6.6789 7.0063 0.0000 -10909.9999 1474.2771 0.0000 0.0000 1777.0840 -7639.1628 298.1892 -9416.2468 -7566.7254 300.2293 -210.9462 -168.7539 30598.0103 -90.2813 -34.5015
ENERGY: 600000 2.8859 12.1024 7.5133 0.0000 -10867.1471 1492.7379 0.0000 0.0000 1823.9507 -7527.9570 306.0533 -9351.9077 -7547.6508 299.9654 178.5427 257.1246 30856.0984 -63.0352 -2.3720
ENERGY: 900000 2.1236 9.6312 7.1946 0.0000 -10730.4376 1386.5035 0.0000 0.0000 1729.6232 -7595.3616 290.2254 -9324.9848 -7551.0941 299.3583 -620.2516 -600.2244 31018.8835 -183.2576 -127.9383
ENERGY: 1200000 4.8120 10.2047 11.0797 0.0000 -10871.8156 1482.2629 0.0000 0.0000 1778.9293 -7584.5270 298.4988 -9363.4563 -7545.6311 299.0657 332.2787 332.9869 30358.1035 -178.7426 -119.4387
ENERGY: 1500000 6.1145 8.7650 8.9980 0.0000 -10777.8677 1432.8831 0.0000 0.0000 1865.5914 -7455.5156 313.0404 -9321.1071 -7547.3176 299.4232 -167.8685 -173.2660 30878.5514 -252.2075 -196.9076
TCL: Running FEP window   6: Lambda1 0.25   Lambda2 0.3    [dLambda 0.04999999999999999]
TCL: Setting parameter firsttimestep to 0
TCL: Setting parameter alchLambda to 0.25
Info: NONBONDED TABLE R-SQUARED SPACING: 0.0625
Info: NONBONDED TABLE SIZE: 705 POINTS
TCL: Setting parameter alchLambda2 to 0.3
Info: NONBONDED TABLE R-SQUARED SPACING: 0.0625
Info: NONBONDED TABLE SIZE: 705 POINTS
TCL: Running for 1500000 steps
ETITLE: TS BOND ANGLE DIHED IMPRP ELECT VDW BOUNDARY MISC KINETIC TOTAL TEMP POTENTIAL TOTALAVG TEMPAVG PRESSURE GPRESSURE VOLUME PRESSAVG GPRESSAVG
ENERGY: 0 6.1145 8.7650 8.9980 0.0000 -10777.8668 1432.3221 0.0000 0.0000 1864.7039 -7456.9633 312.8915 -9321.6671 -7456.9633 312.8915 -236.7168 -169.3361 30878.5514 -236.7168 -169.3361
ENERGY: 300000 5.4604 9.6180 11.2612 0.0000 -10824.1539 1469.3107 0.0000 0.0000 1803.0685 -7525.4352 302.5493 -9328.5037 -7568.0041 302.8200 295.3780 329.1806 30321.0550 -260.4741 -180.9292
ENERGY: 600000 3.4742 12.3481 7.8052 0.0000 -10835.3025 1493.0303 0.0000 0.0000 1740.2158 -7578.4289 292.0028 -9318.6447 -7553.7744 301.6144 229.1923 249.1812 30614.8396 -52.5445 9.0073
ENERGY: 900000 5.8090 8.2962 9.0022 0.0000 -10911.1127 1506.0653 0.0000 0.0000 1784.4251 -7597.5151 299.4210 -9381.9401 -7554.9395 301.3771 161.2860 201.0522 30412.1453 -12.3264 51.4249
ENERGY: 1200000 3.7221 15.2339 9.0949 0.0000 -10722.9571 1390.2869 0.0000 0.0000 1788.5865 -7516.0326 300.1193 -9304.6192 -7555.3949 301.0688 -620.5974 -521.1917 30773.3769 -55.5501 15.7354
ENERGY: 1500000 6.6994 13.1516 12.8320 0.0000 -10912.2956 1472.0272 0.0000 0.0000 1807.0225 -7600.5630 303.2128 -9407.5855 -7555.7187 300.5180 -78.6376 -56.4720 30377.7598 -20.3744 48.7912
TCL: Running FEP window   7: Lambda1 0.3    Lambda2 0.35   [dLambda 0.04999999999999999]
TCL: Setting parameter firsttimestep to 0
TCL: Setting parameter alchLambda to 0.3
Info: NONBONDED TABLE R-SQUARED SPACING: 0.0625
Info: NONBONDED TABLE SIZE: 705 POINTS
TCL: Setting parameter alchLambda2 to 0.35
Info: NONBONDED TABLE R-SQUARED SPACING: 0.0625
Info: NONBONDED TABLE SIZE: 705 POINTS
TCL: Running for 1500000 steps
ETITLE: TS BOND ANGLE DIHED IMPRP ELECT VDW BOUNDARY MISC KINETIC TOTAL TEMP POTENTIAL TOTALAVG TEMPAVG PRESSURE GPRESSURE VOLUME PRESSAVG GPRESSAVG
ENERGY: 0 6.6994 13.1516 12.8320 0.0000 -10912.2954 1472.2790 0.0000 0.0000 1806.1680 -7601.1654 303.0694 -9407.3334 -7601.1654 303.0694 -125.2751 -47.0801 30377.7598 -125.2751 -47.0801
ENERGY: 300000 6.2442 7.8545 6.0041 0.0000 -10715.0285 1381.6624 0.0000 0.0000 1757.4983 -7555.7651 294.9028 -9313.2634 -7591.7256 296.8583 -483.7323 -431.7126 30776.6439 -285.3567 -238.0070
ENERGY: 600000 4.0648 12.9752 7.1801 0.0000 -10755.6245 1434.6261 0.0000 0.0000 1791.2481 -7505.5303 300.5659 -9296.7784 -7577.2231 298.8660 -164.1841 -88.7776 30896.2475 -48.8102 16.9046
ENERGY: 900000 4.0044 6.6628 8.0450 0.0000 -10706.9446 1380.3036 0.0000 0.0000 1874.8369 -7433.0919 314.5918 -9307.9288 -7555.7443 301.0113 -621.3288 -580.7171 31286.3258 -72.5854 -1.1762
ENERGY: 1200000 5.5337 9.2007 4.8569 0.0000 -10723.8799 1371.5646 0.0000 0.0000 1802.1663 -7530.5578 302.3979 -9332.7240 -7560.4180 301.0906 -830.0750 -728.8156 30906.9310 -66.7351 9.8206
ENERGY: 1500000 3.9474 13.2047 10.1821 0.0000 -10786.4726 1449.8180 0.0000 0.0000 1751.1567 -7558.1637 293.8387 -9309.3204 -7553.7636 300.2423 159.8231 261.8085 30489.9769 -84.8439 -11.0598
TCL: Running FEP window   8: Lambda1 0.35   Lambda2 0.39999999999999997 [dLambda 0.04999999999999999]
TCL: Setting parameter firsttimestep to 0
TCL: Setting parameter alchLambda to 0.35
Info: NONBONDED TABLE R-SQUARED SPACING: 0.0625
Info: NONBONDED TABLE SIZE: 705 POINTS
TCL: Setting parameter alchLambda2 to 0.39999999999999997
Info: NONBONDED TABLE R-SQUARED SPACING: 0.0625
Info: NONBONDED TABLE SIZE: 705 POINTS
TCL: Running for 1500000 steps
ETITLE: TS BOND ANGLE DIHED IMPRP ELECT VDW BOUNDARY MISC KINETIC TOTAL TEMP POTENTIAL TOTALAVG TEMPAVG PRESSURE GPRESSURE VOLUME PRESSAVG GPRESSAVG
ENERGY: 0 3.9474 13.2047 10.1821 0.0000 -10786.4737 1449.2505 0.0000 0.0000 1750.2873 -7559.6018 293.6928 -9309.8891 -7559.6018 293.6928 205.7566 266.2737 30489.9769 205.7566 266.2737
ENERGY: 300000 5.0472 11.7843 7.3926 0.0000 -10888.8044 1480.5681 0.0000 0.0000 1826.1488 -7557.8634 306.4221 -9384.0121 -7567.3680 301.2176 42.0018 141.7778 30598.7834 619.7580 687.7858
ENERGY: 600000 3.4161 8.0750 6.6356 0.0000 -10798.1471 1453.5430 0.0000 0.0000 1785.0399 -7541.4374 299.5242 -9326.4773 -7561.1242 300.1375 -145.2772 -79.8121 30836.3453 368.0486 438.6860
ENERGY: 900000 3.4125 6.2823 8.2172 0.0000 -10836.4283 1469.6137 0.0000 0.0000 1764.6208 -7584.2819 296.0979 -9348.9027 -7571.0366 299.5969 25.3204 91.4349 30568.3144 186.1944 253.8976
ENERGY: 1200000 7.0996 12.3182 8.2665 0.0000 -10836.3361 1504.5787 0.0000 0.0000 1857.9712 -7446.1020 311.7618 -9304.0731 -7556.3060 300.1518 777.7449 789.9830 30606.4578 231.3742 286.6450
ENERGY: 1500000 2.8636 14.0369 11.1281 0.0000 -10837.9205 1463.9676 0.0000 0.0000 1831.4983 -7514.4260 307.3197 -9345.9243 -7544.9609 301.5037 170.6917 237.6245 30558.2804 155.5848 216.7033
TCL: Running FEP window   9: Lambda1 0.39999999999999997 Lambda2 0.44999999999999996 [dLambda 0.04999999999999999]
TCL: Setting parameter firsttimestep to 0
TCL: Setting parameter alchLambda to 0.39999999999999997
Info: NONBONDED TABLE R-SQUARED SPACING: 0.0625
Info: NONBONDED TABLE SIZE: 705 POINTS
TCL: Setting parameter alchLambda2 to 0.44999999999999996
Info: NONBONDED TABLE R-SQUARED SPACING: 0.0625
Info: NONBONDED TABLE SIZE: 705 POINTS
TCL: Running for 1500000 steps
ETITLE: TS BOND ANGLE DIHED IMPRP ELECT VDW BOUNDARY MISC KINETIC TOTAL TEMP POTENTIAL TOTALAVG TEMPAVG PRESSURE GPRESSURE VOLUME PRESSAVG GPRESSAVG
ENERGY: 0 2.8636 14.0369 11.1281 0.0000 -10837.9213 1463.6697 0.0000 0.0000 1830.6058 -7515.6172 307.1700 -9346.2230 -7515.6172 307.1700 161.9043 243.8970 30558.2804 161.9043 243.8970
ENERGY: 300000 4.4004 8.2294 8.8971 0.0000 -10811.1820 1395.8102 0.0000 0.0000 1762.2863 -7631.5585 295.7062 -9393.8448 -7564.5976 301.8499 -589.8103 -504.7178 30589.3792 -45.4241 41.6896
ENERGY: 600000 7.7109 12.0800 6.7909 0.0000 -10680.6787 1348.7171 0.0000 0.0000 1811.8123 -7493.5675 304.0165 -9305.3798 -7558.2783 300.9426 -933.9400 -875.7302 30998.8073 -196.4922 -100.0244
ENERGY: 900000 4.7146 8.8411 7.5067 0.0000 -10854.3921 1509.3639 0.0000 0.0000 1810.3680 -7513.5977 303.7741 -9323.9658 -7552.4996 301.5538 366.5356 422.1731 30508.6940 -160.9287 -68.9901
ENERGY: 1200000 4.1905 11.7096 7.3674 0.0000 -10656.1095 1338.3912 0.0000 0.0000 1739.1866 -7555.2641 291.8301 -9294.4507 -7557.8790 300.8367 -781.5625 -728.0207 30897.7816 -195.7237 -112.3421
ENERGY: 1500000 8.7549 12.6762 7.5881 0.0000 -10768.1360 1438.0254 0.0000 0.0000 1798.4202 -7502.6712 301.7693 -9301.0914 -7548.2564 300.9076 -312.6358 -195.6974 31114.3404 -185.4594 -96.6848
TCL: Running FEP window  10: Lambda1 0.44999999999999996 Lambda2 0.49999999999999994 [dLambda 0.04999999999999999]
TCL: Setting parameter firsttimestep to 0
TCL: Setting parameter alchLambda to 0.44999999999999996
Info: NONBONDED TABLE R-SQUARED SPACING: 0.0625
Info: NONBONDED TABLE SIZE: 705 POINTS
TCL: Setting parameter alchLambda2 to 0.49999999999999994
Info: NONBONDED TABLE R-SQUARED SPACING: 0.0625
Info: NONBONDED TABLE SIZE: 705 POINTS
TCL: Running for 1500000 steps
ETITLE: TS BOND ANGLE DIHED IMPRP ELECT VDW BOUNDARY MISC KINETIC TOTAL TEMP POTENTIAL TOTALAVG TEMPAVG PRESSURE GPRESSURE VOLUME PRESSAVG GPRESSAVG
ENERGY: 0 8.7549 12.6762 7.5881 0.0000 -10768.1344 1437.0622 0.0000 0.0000 1797.5505 -7504.5026 301.6234 -9302.0531 -7504.5026 301.6234 -287.1378 -195.6235 31114.3404 -287.1378 -195.6235
ENERGY: 300000 2.9129 18.3861 7.5366 0.0000 -10794.7080 1379.3961 0.0000 0.0000 1781.2678 -7605.2085 298.8912 -9386.4763 -7568.8470 297.3481 -559.7624 -503.6332 30383.2858 -181.7198 -92.5037
ENERGY: 600000 5.2742 10.2767 11.9195 0.0000 -10772.3155 1507.2747 0.0000 0.0000 1715.3022 -7522.2682 287.8224 -9237.5704 -7546.2910 299.3702 745.9257 753.2620 30864.0356 -49.7712 16.1930
ENERGY: 900000 6.7623 10.4936 8.1057 0.0000 -10774.3987 1375.2381 0.0000 0.0000 1791.2705 -7582.5285 300.5696 -9373.7990 -7544.5848 299.5987 -786.7361 -701.6332 30335.9994 23.9211 97.4350
ENERGY: 1200000 3.9184 12.0140 4.5020 0.0000 -10892.0113 1472.4091 0.0000 0.0000 1813.4327 -7585.7351 304.2884 -9399.1678 -7541.9315 300.4327 -188.6970 -114.0955 30952.2972 13.0158 82.6030
ENERGY: 1500000 4.4328 14.3260 7.3840 0.0000 -10920.3007 1551.5226 0.0000 0.0000 1804.6079 -7538.0274 302.8076 -9342.6354 -7549.4043 300.8602 832.3863 828.3948 30578.3440 111.7666 168.9908
TCL: Running FEP window  11: Lambda1 0.49999999999999994 Lambda2 0.5499999999999999 [dLambda 0.04999999999999999]
TCL: Setting parameter firsttimestep to 0
TCL: Setting parameter alchLambda to 0.49999999999999994
Info: NONBONDED TABLE R-SQUARED SPACING: 0.0625
Info: NONBONDED TABLE SIZE: 705 POINTS
TCL: Setting parameter alchLambda2 to 0.5499999999999999
Info: NONBONDED TABLE R-SQUARED SPACING: 0.0625
Info: NONBONDED TABLE SIZE: 705 POINTS
TCL: Running for 1500000 steps
ETITLE: TS BOND ANGLE DIHED IMPRP ELECT VDW BOUNDARY MISC KINETIC TOTAL TEMP POTENTIAL TOTALAVG TEMPAVG PRESSURE GPRESSURE VOLUME PRESSAVG GPRESSAVG
ENERGY: 0 4.4328 14.3260 7.3840 0.0000 -10920.3007 1551.7720 0.0000 0.0000 1803.7280 -7538.6579 302.6600 -9342.3859 -7538.6579 302.6600 764.5081 838.8106 30578.3440 764.5081 838.8106
ENERGY: 300000 5.1355 8.1204 8.5606 0.0000 -10685.3630 1369.0864 0.0000 0.0000 1908.5710 -7385.8891 320.2523 -9294.4601 -7483.4311 306.6039 -691.2882 -566.0242 30906.1645 55.4817 128.4885
ENERGY: 600000 7.6220 11.6520 8.5059 0.0000 -10757.4116 1401.0249 0.0000 0.0000 1803.0243 -7525.5825 302.5419 -9328.6068 -7505.5370 303.4033 -802.3469 -659.9189 30710.2057 -29.0314 54.2452
ENERGY: 900000 2.2445 9.0884 12.8733 0.0000 -10856.1214 1451.4012 0.0000 0.0000 1818.8658 -7561.6483 305.2000 -9380.5141 -7510.2211 302.6124 215.8742 226.3956 30047.9662 -4.9989 63.9452
ENERGY: 1200000 4.0395 11.7123 7.8646 0.0000 -10755.1938 1414.1043 0.0000 0.0000 1769.0191 -7548.4540 296.8359 -9317.4731 -7527.3762 301.5813 -264.8692 -219.2813 30672.2735 -40.5655 19.5012
ENERGY: 1500000 5.8349 10.2731 4.9787 0.0000 -10827.1225 1491.8108 0.0000 0.0000 1815.9998 -7498.2252 304.7191 -9314.2250 -7533.0542 300.6129 315.7905 389.0210 30859.6557 40.6080 104.1507
TCL: Running FEP window  12: Lambda1 0.5499999999999999 Lambda2 0.6    [dLambda 0.050000000000000044]
TCL: Setting parameter firsttimestep to 0
TCL: Setting parameter alchLambda to 0.5499999999999999
Info: NONBONDED TABLE R-SQUARED SPACING: 0.0625
Info: NONBONDED TABLE SIZE: 705 POINTS
TCL: Setting parameter alchLambda2 to 0.6
Info: NONBONDED TABLE R-SQUARED SPACING: 0.0625
Info: NONBONDED TABLE SIZE: 705 POINTS
TCL: Running for 1500000 steps
ETITLE: TS BOND ANGLE DIHED IMPRP ELECT VDW BOUNDARY MISC KINETIC TOTAL TEMP POTENTIAL TOTALAVG TEMPAVG PRESSURE GPRESSURE VOLUME PRESSAVG GPRESSAVG
ENERGY: 0 5.8349 10.2731 4.9787 0.0000 -10826.8207 1491.6093 0.0000 0.0000 1815.1238 -7499.0009 304.5721 -9314.1247 -7499.0009 304.5721 322.0208 398.1794 30859.6557 322.0208 398.1794
ENERGY: 300000 2.7302 11.9546 8.6091 0.0000 -10861.1458 1498.3793 0.0000 0.0000 1833.8359 -7505.6368 307.7120 -9339.4726 -7522.8772 300.8479 402.7505 418.5741 30853.8251 199.9883 257.9789
ENERGY: 600000 4.7014 9.4080 6.7727 0.0000 -10940.8037 1458.8142 0.0000 0.0000 1821.3904 -7639.7168 305.6237 -9461.1072 -7534.0771 303.5740 -148.0830 -78.7816 30367.8129 34.2664 105.9539
ENERGY: 900000 7.1108 10.9326 9.9877 0.0000 -10788.2209 1413.9060 0.0000 0.0000 1787.1217 -7559.1620 299.8735 -9346.2837 -7551.1514 301.6066 -555.7507 -462.5339 30512.6750 3.1498 73.1383
ENERGY: 1200000 6.5171 7.1951 6.4428 0.0000 -10881.2237 1521.5172 0.0000 0.0000 1831.7852 -7507.7664 307.3679 -9339.5515 -7546.3858 301.9980 288.5304 381.0756 30951.7196 -2.8423 71.3350
ENERGY: 1500000 5.0282 10.0317 7.9929 0.0000 -10944.1044 1543.8831 0.0000 0.0000 1774.1739 -7602.9945 297.7009 -9377.1684 -7549.9636 301.9795 369.8622 416.7526 30804.6168 7.7359 80.7087
TCL: Running FEP window  13: Lambda1 0.6    Lambda2 0.65   [dLambda 0.050000000000000044]
TCL: Setting parameter firsttimestep to 0
TCL: Setting parameter alchLambda to 0.6
Info: NONBONDED TABLE R-SQUARED SPACING: 0.0625
Info: NONBONDED TABLE SIZE: 705 POINTS
TCL: Setting parameter alchLambda2 to 0.65
Info: NONBONDED TABLE R-SQUARED SPACING: 0.0625
Info: NONBONDED TABLE SIZE: 705 POINTS
TCL: Running for 1500000 steps
ETITLE: TS BOND ANGLE DIHED IMPRP ELECT VDW BOUNDARY MISC KINETIC TOTAL TEMP POTENTIAL TOTALAVG TEMPAVG PRESSURE GPRESSURE VOLUME PRESSAVG GPRESSAVG
ENERGY: 0 5.0282 10.0317 7.9929 0.0000 -10943.9779 1544.6373 0.0000 0.0000 1773.3206 -7602.9671 297.5577 -9376.2877 -7602.9671 297.5577 345.0699 439.4091 30804.6168 345.0699 439.4091
ENERGY: 300000 4.8097 10.8899 13.6080 0.0000 -10745.0028 1450.7005 0.0000 0.0000 1763.6438 -7501.3509 295.9339 -9264.9947 -7556.9738 298.5672 78.0965 142.5402 30989.4933 300.1050 370.4902
ENERGY: 600000 3.9281 12.5775 7.8007 0.0000 -10798.4595 1450.2057 0.0000 0.0000 1797.6488 -7526.2987 301.6399 -9323.9475 -7539.7960 300.5957 117.4082 147.9512 30398.8855 216.5306 268.1615
ENERGY: 900000 4.5136 4.8935 6.4509 0.0000 -10795.5806 1511.0657 0.0000 0.0000 1837.3437 -7431.3132 308.3006 -9268.6570 -7531.6515 302.6326 878.7160 929.0662 30617.3351 261.0185 322.4397
ENERGY: 1200000 6.0196 9.5346 7.3498 0.0000 -10771.2934 1398.9225 0.0000 0.0000 1767.7575 -7581.7095 296.6242 -9349.4670 -7529.1332 302.1669 -448.2796 -372.5432 30471.3257 258.6989 319.9494
ENERGY: 1500000 3.8099 7.5076 9.6203 0.0000 -10716.9510 1361.8434 0.0000 0.0000 1835.6601 -7498.5097 308.0181 -9334.1698 -7522.9118 302.2892 -445.2475 -356.6869 30193.3191 176.2602 231.6253
TCL: Running FEP window  14: Lambda1 0.65   Lambda2 0.7000000000000001 [dLambda 0.050000000000000044]
TCL: Setting parameter firsttimestep to 0
TCL: Setting parameter alchLambda to 0.65
Info: NONBONDED TABLE R-SQUARED SPACING: 0.0625
Info: NONBONDED TABLE SIZE: 705 POINTS
TCL: Setting parameter alchLambda2 to 0.7000000000000001
Info: NONBONDED TABLE R-SQUARED SPACING: 0.0625
Info: NONBONDED TABLE SIZE: 705 POINTS
TCL: Running for 1500000 steps
ETITLE: TS BOND ANGLE DIHED IMPRP ELECT VDW BOUNDARY MISC KINETIC TOTAL TEMP POTENTIAL TOTALAVG TEMPAVG PRESSURE GPRESSURE VOLUME PRESSAVG GPRESSAVG
ENERGY: 0 3.8099 7.5076 9.6203 0.0000 -10717.9047 1363.1256 0.0000 0.0000 1834.7674 -7499.0739 307.8683 -9333.8413 -7499.0739 307.8683 -410.0239 -332.7981 30193.3191 -410.0239 -332.7981
ENERGY: 300000 4.2617 10.5717 5.1048 0.0000 -10823.2037 1494.1991 0.0000 0.0000 1805.7370 -7503.3294 302.9971 -9309.0664 -7496.1441 305.5604 355.2281 384.3358 30838.0629 67.2289 114.9671
ENERGY: 600000 3.8461 12.9594 6.7154 0.0000 -10677.3120 1383.5653 0.0000 0.0000 1783.3399 -7486.8857 299.2389 -9270.2256 -7515.9369 301.0260 -330.0150 -280.5741 30606.1703 105.3209 156.0272
ENERGY: 900000 2.8405 7.1849 6.1939 0.0000 -10820.6862 1479.9497 0.0000 0.0000 1770.3926 -7554.1245 297.0664 -9324.5171 -7529.4499 300.5601 541.8860 645.0306 30409.6517 70.3839 134.7832
ENERGY: 1200000 3.0509 12.1457 6.9340 0.0000 -10753.7754 1412.8236 0.0000 0.0000 1796.8111 -7522.0101 301.4993 -9318.8211 -7530.3008 300.0338 -412.9151 -367.1897 31031.1668 -66.4445 1.4646
ENERGY: 1500000 5.9614 8.0633 7.5291 0.0000 -10761.7169 1479.4177 0.0000 0.0000 1746.2389 -7514.5065 293.0135 -9260.7453 -7543.3980 299.5425 610.7008 685.8691 30761.0171 31.3019 97.5393
TCL: Running FEP window  15: Lambda1 0.7000000000000001 Lambda2 0.7500000000000001 [dLambda 0.050000000000000044]
TCL: Setting parameter firsttimestep to 0
TCL: Setting parameter alchLambda to 0.7000000000000001
Info: NONBONDED TABLE R-SQUARED SPACING: 0.0625
Info: NONBONDED TABLE SIZE: 705 POINTS
TCL: Setting parameter alchLambda2 to 0.7500000000000001
Info: NONBONDED TABLE R-SQUARED SPACING: 0.0625
Info: NONBONDED TABLE SIZE: 705 POINTS
TCL: Running for 1500000 steps
ETITLE: TS BOND ANGLE DIHED IMPRP ELECT VDW BOUNDARY MISC KINETIC TOTAL TEMP POTENTIAL TOTALAVG TEMPAVG PRESSURE GPRESSURE VOLUME PRESSAVG GPRESSAVG
ENERGY: 0 5.9614 8.0633 7.5291 0.0000 -10763.6127 1481.2788 0.0000 0.0000 1745.3552 -7515.4249 292.8652 -9260.7801 -7515.4249 292.8652 640.3188 717.5922 30761.0171 640.3188 717.5922
ENERGY: 300000 5.6449 9.0183 8.0719 0.0000 -10889.1084 1473.3592 0.0000 0.0000 1778.2188 -7614.7953 298.3796 -9393.0141 -7535.7731 299.8497 -188.5089 -146.2151 31044.2978 -308.1347 -257.1354
ENERGY: 600000 4.8941 14.0039 10.6570 0.0000 -10782.4763 1445.2476 0.0000 0.0000 1745.0085 -7562.6651 292.8070 -9307.6736 -7554.1310 297.5308 146.7431 260.1387 30306.2213 -121.3858 -43.1674
ENERGY: 900000 3.4045 8.4583 11.0840 0.0000 -10871.3988 1445.0589 0.0000 0.0000 1751.3619 -7652.0313 293.8731 -9403.3931 -7563.8677 298.0766 -113.7168 -56.3599 30501.2012 -88.5250 -25.9363
ENERGY: 1200000 5.7443 11.2323 10.2684 0.0000 -10786.7393 1453.9415 0.0000 0.0000 1737.4285 -7568.1242 291.5351 -9305.5527 -7566.8642 297.6952 -10.5191 54.9570 30999.4171 -24.8982 36.3312
ENERGY: 1500000 3.2297 10.0787 8.3258 0.0000 -10742.9895 1392.9601 0.0000 0.0000 1827.8205 -7500.5748 306.7026 -9328.3952 -7563.0195 298.7109 -463.5418 -340.9855 30963.2882 -31.8120 35.7987
TCL: Running FEP window  16: Lambda1 0.7500000000000001 Lambda2 0.8000000000000002 [dLambda 0.050000000000000044]
TCL: Setting parameter firsttimestep to 0
TCL: Setting parameter alchLambda to 0.7500000000000001
Info: NONBONDED TABLE R-SQUARED SPACING: 0.0625
Info: NONBONDED TABLE SIZE: 705 POINTS
TCL: Setting parameter alchLambda2 to 0.8000000000000002
Info: NONBONDED TABLE R-SQUARED SPACING: 0.0625
Info: NONBONDED TABLE SIZE: 705 POINTS
TCL: Running for 1500000 steps
ETITLE: TS BOND ANGLE DIHED IMPRP ELECT VDW BOUNDARY MISC KINETIC TOTAL TEMP POTENTIAL TOTALAVG TEMPAVG PRESSURE GPRESSURE VOLUME PRESSAVG GPRESSAVG
ENERGY: 0 3.2297 10.0787 8.3258 0.0000 -10746.9444 1395.7667 0.0000 0.0000 1826.9334 -7502.6101 306.5538 -9329.5435 -7502.6101 306.5538 -395.3343 -312.6250 30963.2882 -395.3343 -312.6250
ENERGY: 300000 3.1725 10.4479 10.4738 0.0000 -10841.6498 1497.9303 0.0000 0.0000 1802.7474 -7516.8780 302.4954 -9319.6254 -7563.4496 301.0031 566.2630 639.4819 30695.7139 -113.9050 -38.3815
ENERGY: 600000 7.4451 6.0316 8.4228 0.0000 -10724.6256 1403.2665 0.0000 0.0000 1768.5968 -7530.8628 296.7651 -9299.4596 -7559.2879 300.4694 -366.3202 -340.9650 31310.7587 -189.1520 -119.4659
ENERGY: 900000 6.1185 9.4737 8.6161 0.0000 -10917.8960 1592.9282 0.0000 0.0000 1772.5559 -7528.2036 297.4294 -9300.7595 -7556.3985 300.0713 1031.2402 1139.8077 31006.3576 20.0924 87.4946
ENERGY: 1200000 4.0895 4.9540 8.6195 0.0000 -10848.3670 1419.6148 0.0000 0.0000 1767.8989 -7643.1904 296.6479 -9411.0892 -7565.4724 299.7741 -454.1009 -392.9286 30866.4989 -45.8029 19.8727
ENERGY: 1500000 3.8615 15.9758 7.1083 0.0000 -10800.8789 1433.2271 0.0000 0.0000 1823.0442 -7517.6620 305.9012 -9340.7062 -7564.7185 299.6973 -242.2485 -160.1836 30925.7957 20.0423 91.6749
TCL: Running FEP window  17: Lambda1 0.8000000000000002 Lambda2 0.8500000000000002 [dLambda 0.050000000000000044]
TCL: Setting parameter firsttimestep to 0
TCL: Setting parameter alchLambda to 0.8000000000000002
Info: NONBONDED TABLE R-SQUARED SPACING: 0.0625
Info: NONBONDED TABLE SIZE: 705 POINTS
TCL: Setting parameter alchLambda2 to 0.8500000000000002
Info: NONBONDED TABLE R-SQUARED SPACING: 0.0625
Info: NONBONDED TABLE SIZE: 705 POINTS
TCL: Running for 1500000 steps
ETITLE: TS BOND ANGLE DIHED IMPRP ELECT VDW BOUNDARY MISC KINETIC TOTAL TEMP POTENTIAL TOTALAVG TEMPAVG PRESSURE GPRESSURE VOLUME PRESSAVG GPRESSAVG
ENERGY: 0 3.8615 15.9758 7.1083 0.0000 -10801.6056 1433.4515 0.0000 0.0000 1822.1427 -7519.0657 305.7499 -9341.2084 -7519.0657 305.7499 -227.5014 -141.2260 30925.7957 -227.5014 -141.2260
ENERGY: 300000 2.4220 10.6381 6.0395 0.0000 -10929.4234 1470.4352 0.0000 0.0000 1798.8932 -7640.9954 301.8487 -9439.8887 -7561.8084 304.6148 158.8734 189.9792 30403.9447 -144.1063 -88.2333
ENERGY: 600000 5.1494 10.2681 7.3288 0.0000 -10903.3799 1409.6025 0.0000 0.0000 1795.2047 -7675.8265 301.2298 -9471.0312 -7572.8647 302.6226 -578.2620 -533.3515 30067.3119 -165.9124 -101.8206
ENERGY: 900000 5.8187 9.0530 6.6621 0.0000 -10842.1019 1451.1940 0.0000 0.0000 1771.3465 -7598.0277 297.2264 -9369.3742 -7578.0597 300.3184 -235.6332 -193.7994 30779.9141 -193.3337 -124.5297
ENERGY: 1200000 2.3173 10.6687 5.7649 0.0000 -10902.9259 1551.3188 0.0000 0.0000 1781.0075 -7551.8486 298.8475 -9332.8561 -7581.8658 299.7745 799.8479 839.4387 30957.0388 -168.9136 -99.8776
ENERGY: 1500000 6.3748 21.3296 12.4062 0.0000 -10779.5223 1494.1190 0.0000 0.0000 1803.7992 -7441.4935 302.6719 -9245.2927 -7575.1261 299.7393 463.3867 551.9033 31190.0887 -93.3242 -23.8245
TCL: Running FEP window  18: Lambda1 0.8500000000000002 Lambda2 0.9000000000000002 [dLambda 0.050000000000000044]
TCL: Setting parameter firsttimestep to 0
TCL: Setting parameter alchLambda to 0.8500000000000002
Info: NONBONDED TABLE R-SQUARED SPACING: 0.0625
Info: NONBONDED TABLE SIZE: 705 POINTS
TCL: Setting parameter alchLambda2 to 0.9000000000000002
Info: NONBONDED TABLE R-SQUARED SPACING: 0.0625
Info: NONBONDED TABLE SIZE: 705 POINTS
TCL: Running for 1500000 steps
ETITLE: TS BOND ANGLE DIHED IMPRP ELECT VDW BOUNDARY MISC KINETIC TOTAL TEMP POTENTIAL TOTALAVG TEMPAVG PRESSURE GPRESSURE VOLUME PRESSAVG GPRESSAVG
ENERGY: 0 6.3748 21.3296 12.4062 0.0000 -10783.3769 1497.0291 0.0000 0.0000 1802.9081 -7443.3291 302.5224 -9246.2372 -7443.3291 302.5224 489.0629 593.1945 31190.0887 489.0629 593.1945
ENERGY: 300000 3.7543 12.5424 8.8171 0.0000 -10711.3541 1372.0584 0.0000 0.0000 1792.5903 -7521.5914 300.7911 -9314.1818 -7562.9876 300.0874 -525.9928 -460.7772 31092.0919 -88.6926 -8.1891
ENERGY: 600000 8.6460 8.2605 11.3789 0.0000 -10643.2575 1288.8424 0.0000 0.0000 1826.0541 -7500.0756 306.4062 -9326.1297 -7557.1812 299.1876 -1197.5981 -1165.6069 31026.6053 -219.8539 -150.3619
ENERGY: 900000 4.3591 9.5974 11.6194 0.0000 -10814.4069 1418.9970 0.0000 0.0000 1814.0082 -7555.8257 304.3849 -9369.8339 -7561.7861 299.5899 -199.6255 -206.6958 30802.9506 -161.3461 -103.1587
ENERGY: 1200000 6.7112 11.4936 6.7104 0.0000 -10874.8942 1519.4852 0.0000 0.0000 1794.0564 -7536.4373 301.0371 -9330.4937 -7561.4509 299.0085 777.8458 712.9898 30685.0269 -85.6523 -44.2446
ENERGY: 1500000 4.5400 7.2692 9.7131 0.0000 -10899.9236 1521.4510 0.0000 0.0000 1751.3238 -7605.6266 293.8667 -9356.9505 -7568.0530 298.7309 226.5242 328.2294 31176.5490 -28.1571 17.8620
TCL: Running FEP window  19: Lambda1 0.9000000000000002 Lambda2 0.9500000000000003 [dLambda 0.050000000000000044]
TCL: Setting parameter firsttimestep to 0
TCL: Setting parameter alchLambda to 0.9000000000000002
Info: NONBONDED TABLE R-SQUARED SPACING: 0.0625
Info: NONBONDED TABLE SIZE: 705 POINTS
TCL: Setting parameter alchLambda2 to 0.9500000000000003
Info: NONBONDED TABLE R-SQUARED SPACING: 0.0625
Info: NONBONDED TABLE SIZE: 705 POINTS
TCL: Running for 1500000 steps
ETITLE: TS BOND ANGLE DIHED IMPRP ELECT VDW BOUNDARY MISC KINETIC TOTAL TEMP POTENTIAL TOTALAVG TEMPAVG PRESSURE GPRESSURE VOLUME PRESSAVG GPRESSAVG
ENERGY: 0 4.5400 7.2692 9.7131 0.0000 -10902.5207 1521.7443 0.0000 0.0000 1750.4182 -7608.8360 293.7147 -9359.2542 -7608.8360 293.7147 269.0665 344.7959 31176.5490 269.0665 344.7959
ENERGY: 300000 6.2277 5.9385 7.9606 0.0000 -10947.1958 1535.4815 0.0000 0.0000 1796.8592 -7594.7283 301.5074 -9391.5875 -7566.9782 299.7283 678.3623 731.7064 30678.6970 356.2062 412.4559
ENERGY: 600000 4.1298 9.6196 11.6986 0.0000 -10845.5010 1493.8919 0.0000 0.0000 1823.8116 -7502.3494 306.0299 -9326.1611 -7544.4467 301.0537 288.2923 381.1655 30649.6748 329.1106 386.3561
ENERGY: 900000 8.2315 8.7395 8.1351 0.0000 -10860.9031 1477.0671 0.0000 0.0000 1780.7656 -7577.9642 298.8069 -9358.7299 -7548.0679 300.5464 103.7833 183.1680 30925.9340 274.6646 331.1806
ENERGY: 1200000 3.7833 7.4409 6.8243 0.0000 -10803.1070 1477.4681 0.0000 0.0000 1767.6271 -7539.9633 296.6023 -9307.5904 -7547.8670 300.5094 186.6973 304.1951 31027.2005 255.2588 315.7622
ENERGY: 1500000 5.5094 8.8808 7.6660 0.0000 -10820.6209 1456.9682 0.0000 0.0000 1798.6167 -7542.9799 301.8023 -9341.5966 -7550.2163 300.1584 46.1201 74.5062 30788.4979 183.1655 244.8333
TCL: Running FEP window  20: Lambda1 0.9500000000000003 Lambda2 1.0    [dLambda 0.04999999999999971]
TCL: Setting parameter firsttimestep to 0
TCL: Setting parameter alchLambda to 0.9500000000000003
Info: NONBONDED TABLE R-SQUARED SPACING: 0.0625
Info: NONBONDED TABLE SIZE: 705 POINTS
TCL: Setting parameter alchLambda2 to 1.0
Info: NONBONDED TABLE R-SQUARED SPACING: 0.0625
Info: NONBONDED TABLE SIZE: 705 POINTS
TCL: Running for 1500000 steps
ETITLE: TS BOND ANGLE DIHED IMPRP ELECT VDW BOUNDARY MISC KINETIC TOTAL TEMP POTENTIAL TOTALAVG TEMPAVG PRESSURE GPRESSURE VOLUME PRESSAVG GPRESSAVG
ENERGY: 0 5.5094 8.8808 7.6660 0.0000 -10822.4574 1456.9884 0.0000 0.0000 1797.7073 -7545.7056 301.6497 -9343.4128 -7545.7056 301.6497 -6.8659 87.4867 30788.4979 -6.8659 87.4867
ENERGY: 300000 6.7596 8.0359 7.3723 0.0000 -10829.7418 1436.6782 0.0000 0.0000 1807.8267 -7563.0690 303.3477 -9370.8957 -7572.8367 299.1629 -229.0144 -150.5021 30994.8928 -119.9990 -52.5892
ENERGY: 600000 6.9836 8.0418 8.2113 0.0000 -10811.8734 1473.0533 0.0000 0.0000 1786.6215 -7528.9619 299.7895 -9315.5834 -7547.3412 298.7105 108.1634 137.5561 30984.5158 -145.5659 -99.5153
ENERGY: 900000 6.7424 10.3398 7.2238 0.0000 -10852.5777 1445.0001 0.0000 0.0000 1800.1658 -7583.1059 302.0622 -9383.2717 -7545.8946 299.8206 -390.4248 -313.7491 31058.0787 -197.5152 -143.5693
ENERGY: 1200000 7.4780 7.9733 7.2479 0.0000 -10902.3546 1540.6897 0.0000 0.0000 1823.0618 -7515.9039 305.9041 -9338.9657 -7545.7639 300.0403 554.0759 570.0411 31078.6788 -86.4370 -39.5965
ENERGY: 1500000 5.4914 16.3140 7.7187 0.0000 -10805.0105 1375.5097 0.0000 0.0000 1789.1231 -7610.8535 300.2093 -9399.9767 -7546.3734 300.5256 -693.4772 -652.8894 30849.1610 -136.5523 -85.4602
TCL: Exiting due to exit command.
