Info: SIMULATION PARAMETERS:
Info: TIMESTEP               2
Info: NUMBER OF STEPS        0
Info: STEPS PER CYCLE        10
Info: PERIODIC CELL BASIS 1  32.5476 0 0
Info: PERIODIC CELL BASIS 2  0 29.2299 0
Info: PERIODIC CELL BASIS 3  0 0 32.198
Info: PERIODIC CELL CENTER   0 0 0
Info: WRAPPING WATERS AROUND PERIODIC BOUNDARIES ON OUTPUT.
Info: WRAPPING ALL CLUSTERS AROUND PERIODIC BOUNDARIES ON OUTPUT.
Info: FIRST LDB TIMESTEP     50
Info: LAST LDB TIMESTEP     -1
Info: HOM BACKGROUND SCALING 1
Info: PME BACKGROUND SCALING 1
Info: MIN ATOMS PER PATCH    40
Info: EMPTY PATCH LOAD       40 ATOMS
Info: VELOCITY FILE          mobley_3573480_equil.vel
Info: CENTER OF MASS MOVING INITIALLY? NO
Info: DIELECTRIC             1
Info: EXCLUDE                SCALED ONE-FOUR
Info: 1-4 ELECTROSTATICS SCALED BY 0.833333
Info: MODIFIED 1-4 VDW PARAMETERS WILL BE USED
Info: DCD FILENAME           mobley_3573480_prod.dcd
Info: DCD FREQUENCY          100000
Info: DCD FIRST STEP         100000
Info: DCD FILE WILL CONTAIN UNIT CELL DATA
Info: XST FILENAME           mobley_3573480_prod.xst
Info: XST FREQUENCY          100000
Info: NO VELOCITY DCD OUTPUT
Info: NO FORCE DCD OUTPUT
Info: OUTPUT FILENAME        mobley_3573480_prod
Info: BINARY OUTPUT FILES WILL BE USED
Info: RESTART FILENAME       mobley_3573480_prod.restart
Info: RESTART FREQUENCY      100000
Info: BINARY RESTART FILES WILL BE USED
Info: CUTOFF                 9
Info: PAIRLIST DISTANCE      11
Info: PAIRLIST SHRINK RATE   0.01
Info: PAIRLIST GROW RATE     0.01
Info: PAIRLIST TRIGGER       0.3
Info: PAIRLISTS PER CYCLE    2
Info: PAIRLISTS ENABLED
Info: MARGIN                 2
Info: HYDROGEN GROUP CUTOFF  2.5
Info: PATCH DIMENSION        15.5
Info: ENERGY OUTPUT STEPS    100000
Info: ENERGY EVALUATION STEPS    100000
Info: OUTPUT ENERGY PRECISION 4
Info: CROSSTERM ENERGY INCLUDED IN DIHEDRAL
Info: TIMING OUTPUT STEPS    1000000
Info: PRESSURE OUTPUT STEPS  100000
Info: ALCHEMICAL FEP ON
Info: FEP CURRENT LAMBDA VALUE     0
Info: FEP COMPARISON LAMBDA VALUE  0.05
Info: FEP INTRA-ALCHEMICAL NON-BONDED INTERACTIONS WILL BE RETAINED
Info: FEP INTRA-ALCHEMICAL BONDED INTERACTIONS WILL BE RETAINED
Info: FEP VDW SHIFTING COEFFICIENT 5
Info: FEP ELEC. ACTIVE FOR ANNIHILATED PARTICLES BETWEEN LAMBDA = 0 AND LAMBDA = 0.5
Info: FEP ELEC. ACTIVE FOR EXNIHILATED PARTICLES BETWEEN LAMBDA = 0.5 AND LAMBDA = 1
Info: FEP VDW ACTIVE FOR ANNIHILATED PARTICLES BETWEEN LAMBDA = 0 AND LAMBDA = 1
Info: FEP VDW ACTIVE FOR EXNIHILATED PARTICLES BETWEEN LAMBDA = 0 AND LAMBDA = 1
Info: FEP BOND ACTIVE FOR ANNIHILATED PARTICLES BETWEEN LAMBDA = 1 AND LAMBDA = 1
Info: FEP BOND ACTIVE FOR EXNIHILATED PARTICLES BETWEEN LAMBDA = 0 AND LAMBDA = 0
Info: LANGEVIN DYNAMICS ACTIVE
Info: LANGEVIN TEMPERATURE   300
Info: LANGEVIN USING BBK INTEGRATOR
Info: LANGEVIN DAMPING COEFFICIENT IS 1 INVERSE PS
Info: LANGEVIN DYNAMICS APPLIED TO HYDROGENS
Info: LANGEVIN PISTON PRESSURE CONTROL ACTIVE
Info:        TARGET PRESSURE IS 1.01325 BAR
Info:     OSCILLATION PERIOD IS 50 FS
Info:             DECAY TIME IS 25 FS
Info:     PISTON TEMPERATURE IS 300 K
Info:       PRESSURE CONTROL IS GROUP-BASED
Info:    INITIAL STRAIN RATE IS 7.36013e-05 7.36013e-05 7.36013e-05
Info:       CELL FLUCTUATION IS ISOTROPIC
Info: PARTICLE MESH EWALD (PME) ACTIVE
Info: PME TOLERANCE               1e-06
Info: PME EWALD COEFFICIENT       0.348832
Info: PME INTERPOLATION ORDER     4
Info: PME GRID DIMENSIONS         36 32 36
Info: PME MAXIMUM GRID SPACING    1
Info: PME CALCULATION WILL BE PERFORMED ON GPU
Info: FULL ELECTROSTATIC EVALUATION FREQUENCY      2
Info: USING VERLET I (r-RESPA) MTS SCHEME.
Info: C1 SPLITTING OF LONG RANGE ELECTROSTATICS
Info: PLACING ATOMS IN PATCHES BY HYDROGEN GROUPS
Info: RIGID BONDS TO HYDROGEN : ALL
Info:         ERROR TOLERANCE : 1e-08
Info:          MAX ITERATIONS : 100
Info: RIGID WATER USING SETTLE ALGORITHM
Info: RANDOM NUMBER SEED     1743976326
Info: USE HYDROGEN BONDS?    NO
Info: Using AMBER format force field!
Info: AMBER PARM FILE        mobley_3573480.prmtop
Info: COORDINATE PDB         mobley_3573480.pdb
Info: Exclusions will be read from PARM file!
Info: SCNB (VDW SCALING)     2
Info: USING ARITHMETIC MEAN TO COMBINE L-J SIGMA PARAMETERS
Info: BINARY COORDINATES     mobley_3573480_equil.coor
Info: SUMMARY OF PARAMETERS:
Info: 6 BONDS
Info: 7 ANGLES
Info:   7 HARMONIC
Info:   0 COSINE-BASED
Info: 11 DIHEDRAL
Info: 0 IMPROPER
Info: 0 CROSSTERM
Info: 0 VDW
Info: 21 VDW_PAIRS
Info: 0 NBTHOLE_PAIRS
Info: To read alchdata from file: mobley_3573480.pdb
Info: To read alchflag data from column: 5
Info: STRUCTURE SUMMARY:
Info: 2968 ATOMS
Info: 2967 BONDS
Info: 39 ANGLES
Info: 63 DIHEDRALS
Info: 0 IMPROPERS
Info: 0 CROSSTERMS
Info: 3054 EXCLUSIONS
Info: 2960 RIGID BONDS
Info: ALCH: 0 ATOMS TO DISAPPEAR IN FINAL STATE
Info: ALCH: 22 ATOMS TO APPEAR IN FINAL STATE
Info: 5944 DEGREES OF FREEDOM
Info: 990 HYDROGEN GROUPS
Info: 4 ATOMS IN LARGEST HYDROGEN GROUP
Info: 990 MIGRATION GROUPS
Info: 4 ATOMS IN LARGEST MIGRATION GROUP
Info: TOTAL MASS = 17805.9 amu
Info: TOTAL CHARGE = 0.000100024 e
Info: MASS DENSITY = 0.965269 g/cm^3
Info: ATOM DENSITY = 0.0968923 atoms/A^3
Info: ADDED 0 IMPLICIT EXCLUSIONS
Info: NONBONDED TABLE R-SQUARED SPACING: 0.0625
Info: NONBONDED TABLE SIZE: 705 POINTS
Info: REMOVING COM VELOCITY 0.00478205 -0.214892 -0.0112711
Info: Use 3D box decompostion in PME FFT.
Info: Updated CUDA force table with 4096 elements.
Info: Updated CUDA LJ table with 6 x 6 elements.
Info: Found 25 unique exclusion lists needing 76 bytes
TCL: Running for 1500000 steps
ETITLE: TS BOND ANGLE DIHED IMPRP ELECT VDW BOUNDARY MISC KINETIC TOTAL TEMP POTENTIAL TOTALAVG TEMPAVG PRESSURE GPRESSURE VOLUME PRESSAVG GPRESSAVG
ENERGY: 0 3.1338 10.7586 6.0058 0.0000 -10728.9770 1439.4049 0.0000 0.0000 1772.2420 -7497.4318 300.0783 -9269.6738 -7497.4318 300.0783 -137.2985 -38.5244 30631.9421 -137.2985 -38.5244
ENERGY: 300000 3.1266 12.5482 8.2138 0.0000 -10584.0335 1300.8586 0.0000 0.0000 1827.1841 -7432.1023 309.3812 -9259.2864 -7486.2821 303.7218 -1082.9358 -998.4903 30112.7380 -358.2248 -267.6237
ENERGY: 600000 3.6834 8.5595 6.1545 0.0000 -10769.1130 1396.3910 0.0000 0.0000 1796.2802 -7558.0443 304.1485 -9354.3246 -7495.0125 303.2743 -752.9356 -681.2592 30740.6713 -424.7332 -331.1329
ENERGY: 900000 2.0724 9.6248 6.0807 0.0000 -10595.9533 1333.1824 0.0000 0.0000 1730.9105 -7514.0826 293.0800 -9244.9930 -7502.2062 301.2584 -717.5763 -682.4413 30345.5977 -438.3520 -356.5698
ENERGY: 1200000 0.5270 12.3180 10.0264 0.0000 -10943.8868 1569.6395 0.0000 0.0000 1742.5372 -7608.8388 295.0487 -9351.3759 -7512.3177 300.1288 924.8636 1021.8242 29937.1037 -315.7802 -241.6560
ENERGY: 1500000 1.8074 11.8904 5.1579 0.0000 -10728.2128 1423.8152 0.0000 0.0000 1801.7690 -7483.7728 305.0779 -9285.5418 -7511.0355 300.0959 -127.3545 -99.5126 30368.5852 -267.5303 -199.8647
TCL: Running FEP window   2: Lambda1 0.05   Lambda2 0.1    [dLambda 0.05  ]
TCL: Setting parameter firsttimestep to 0
TCL: Setting parameter alchLambda to 0.05
Info: NONBONDED TABLE R-SQUARED SPACING: 0.0625
Info: NONBONDED TABLE SIZE: 705 POINTS
TCL: Setting parameter alchLambda2 to 0.1
Info: NONBONDED TABLE R-SQUARED SPACING: 0.0625
Info: NONBONDED TABLE SIZE: 705 POINTS
TCL: Running for 1500000 steps
ETITLE: TS BOND ANGLE DIHED IMPRP ELECT VDW BOUNDARY MISC KINETIC TOTAL TEMP POTENTIAL TOTALAVG TEMPAVG PRESSURE GPRESSURE VOLUME PRESSAVG GPRESSAVG
ENERGY: 0 1.8074 11.8904 5.1579 0.0000 -10728.2130 1427.2455 0.0000 0.0000 1800.9116 -7481.2002 304.9327 -9282.1118 -7481.2002 304.9327 -168.0582 -92.2159 30368.5852 -168.0582 -92.2159
ENERGY: 300000 2.3637 9.3353 6.1470 0.0000 -10670.3227 1351.9613 0.0000 0.0000 1785.1978 -7515.3175 302.2720 -9300.5153 -7480.8362 302.7510 -656.9238 -615.6476 29740.5178 -342.8008 -279.0667
ENERGY: 600000 3.0675 7.7302 5.3459 0.0000 -10527.8325 1314.3881 0.0000 0.0000 1717.9657 -7479.3350 290.8882 -9197.3007 -7472.6978 300.6092 -936.4771 -822.7571 30721.4278 -369.3396 -305.6721
ENERGY: 900000 4.2879 10.0102 6.3032 0.0000 -10825.8095 1516.7218 0.0000 0.0000 1812.8421 -7475.6442 306.9528 -9288.4863 -7478.4268 301.9020 532.4208 661.4534 30019.7837 -187.8120 -116.4352
ENERGY: 1200000 2.3317 8.6444 6.5792 0.0000 -10827.5456 1459.0978 0.0000 0.0000 1824.4378 -7526.4546 308.9162 -9350.8925 -7479.2680 302.5959 31.7075 23.0257 30250.6455 -150.9727 -86.4980
ENERGY: 1500000 1.4477 7.2421 5.7681 0.0000 -10675.2926 1439.7486 0.0000 0.0000 1741.1130 -7479.9731 294.8075 -9221.0861 -7478.1330 301.5794 227.7205 251.3154 30183.5483 -56.1493 7.8360
TCL: Running FEP window   3: Lambda1 0.1    Lambda2 0.15000000000000002 [dLambda 0.05000000000000002]
TCL: Setting parameter firsttimestep to 0
TCL: Setting parameter alchLambda to 0.1
Info: NONBONDED TABLE R-SQUARED SPACING: 0.0625
Info: NONBONDED TABLE SIZE: 705 POINTS
TCL: Setting parameter alchLambda2 to 0.15000000000000002
Info: NONBONDED TABLE R-SQUARED SPACING: 0.0625
Info: NONBONDED TABLE SIZE: 705 POINTS
TCL: Running for 1500000 steps
ETITLE: TS BOND ANGLE DIHED IMPRP ELECT VDW BOUNDARY MISC KINETIC TOTAL TEMP POTENTIAL TOTALAVG TEMPAVG PRESSURE GPRESSURE VOLUME PRESSAVG GPRESSAVG
ENERGY: 0 1.4477 7.2421 5.7681 0.0000 -10675.2934 1440.9209 0.0000 0.0000 1740.1821 -7479.7326 294.6499 -9219.9147 -7479.7326 294.6499 188.6946 257.6741 30183.5483 188.6946 257.6741
ENERGY: 300000 0.7341 6.8004 6.0328 0.0000 -10795.5040 1486.9506 0.0000 0.0000 1778.7192 -7516.2668 301.1750 -9294.9861 -7528.0973 295.4642 312.3547 363.0653 30123.1547 223.1152 272.5203
ENERGY: 600000 2.7110 10.9790 4.4010 0.0000 -10664.9723 1392.8611 0.0000 0.0000 1781.0652 -7472.9550 301.5723 -9254.0202 -7508.9879 299.0176 -234.3150 -220.7617 30279.4141 108.0247 162.6933
ENERGY: 900000 1.5380 10.5156 6.7659 0.0000 -10750.4684 1435.6502 0.0000 0.0000 1791.7091 -7504.2897 303.3745 -9295.9988 -7500.8435 301.2335 -217.4801 -162.4595 30220.5159 36.4715 93.7066
ENERGY: 1200000 1.7509 8.5274 5.8997 0.0000 -10725.8573 1450.4841 0.0000 0.0000 1753.7980 -7505.3970 296.9554 -9259.1951 -7504.7071 299.7939 -221.2669 -135.2045 30681.7823 -102.4759 -38.7323
ENERGY: 1500000 3.4729 11.0526 8.1031 0.0000 -10732.7406 1459.9624 0.0000 0.0000 1767.5170 -7482.6326 299.2783 -9250.1496 -7497.1548 299.7581 4.0079 38.4174 30655.4262 -93.5707 -29.1849
TCL: Running FEP window   4: Lambda1 0.15000000000000002 Lambda2 0.2    [dLambda 0.04999999999999999]
TCL: Setting parameter firsttimestep to 0
TCL: Setting parameter alchLambda to 0.15000000000000002
Info: NONBONDED TABLE R-SQUARED SPACING: 0.0625
Info: NONBONDED TABLE SIZE: 705 POINTS
TCL: Setting parameter alchLambda2 to 0.2
Info: NONBONDED TABLE R-SQUARED SPACING: 0.0625
Info: NONBONDED TABLE SIZE: 705 POINTS
TCL: Running for 1500000 steps
ETITLE: TS BOND ANGLE DIHED IMPRP ELECT VDW BOUNDARY MISC KINETIC TOTAL TEMP POTENTIAL TOTALAVG TEMPAVG PRESSURE GPRESSURE VOLUME PRESSAVG GPRESSAVG
ENERGY: 0 3.4729 11.0526 8.1031 0.0000 -10732.7382 1459.9486 0.0000 0.0000 1766.6789 -7483.4821 299.1364 -9250.1610 -7483.4821 299.1364 -27.8060 42.7981 30655.4262 -27.8060 42.7981
ENERGY: 300000 3.3049 12.0141 5.2840 0.0000 -10691.5090 1445.8453 0.0000 0.0000 1796.1138 -7428.9470 304.1203 -9225.0608 -7484.4562 298.2632 -215.2790 -86.2481 30710.0452 -63.5723 40.2267
ENERGY: 600000 2.3937 10.8853 5.9672 0.0000 -10751.4798 1501.4960 0.0000 0.0000 1827.3864 -7403.3513 309.4154 -9230.7377 -7482.1822 298.6843 635.3142 716.8213 30462.0377 43.4007 136.2550
ENERGY: 900000 2.7108 10.5395 5.3642 0.0000 -10643.2430 1455.7135 0.0000 0.0000 1808.8912 -7360.0237 306.2838 -9168.9149 -7486.2742 298.7399 291.9548 427.1327 30444.1818 0.5821 90.0601
ENERGY: 1200000 3.8141 11.4545 5.1779 0.0000 -10664.8056 1425.8520 0.0000 0.0000 1732.2188 -7486.2883 293.3015 -9218.5071 -7479.3561 300.0344 -49.2979 -0.6456 30193.3038 -118.2168 -32.9740
ENERGY: 1500000 2.5553 11.9034 6.2982 0.0000 -10775.9821 1518.7297 0.0000 0.0000 1765.6034 -7470.8920 298.9543 -9236.4954 -7475.1252 299.5808 575.0390 612.7015 30239.4327 -85.6192 -3.3203
TCL: Running FEP window   5: Lambda1 0.2    Lambda2 0.25   [dLambda 0.04999999999999999]
TCL: Setting parameter firsttimestep to 0
TCL: Setting parameter alchLambda to 0.2
Info: NONBONDED TABLE R-SQUARED SPACING: 0.0625
Info: NONBONDED TABLE SIZE: 705 POINTS
TCL: Setting parameter alchLambda2 to 0.25
Info: NONBONDED TABLE R-SQUARED SPACING: 0.0625
Info: NONBONDED TABLE SIZE: 705 POINTS
TCL: Running for 1500000 steps
ETITLE: TS BOND ANGLE DIHED IMPRP ELECT VDW BOUNDARY MISC KINETIC TOTAL TEMP POTENTIAL TOTALAVG TEMPAVG PRESSURE GPRESSURE VOLUME PRESSAVG GPRESSAVG
ENERGY: 0 2.5553 11.9034 6.2982 0.0000 -10775.9842 1520.4360 0.0000 0.0000 1764.7174 -7470.0739 298.8042 -9234.7913 -7470.0739 298.8042 545.2461 622.7834 30239.4327 545.2461 622.7834
ENERGY: 300000 3.0436 9.1546 6.0487 0.0000 -10777.7939 1487.5218 0.0000 0.0000 1774.7952 -7497.2300 300.5106 -9272.0252 -7492.4157 300.5804 95.8246 182.3584 30800.6178 160.5620 239.1670
ENERGY: 600000 0.7605 8.3688 4.6538 0.0000 -10689.0827 1383.2617 0.0000 0.0000 1761.4223 -7530.6155 298.2463 -9292.0379 -7493.6487 301.3174 -592.8608 -497.9474 30405.4652 104.6922 195.0036
ENERGY: 900000 1.5405 6.9469 5.6436 0.0000 -10758.6864 1498.6474 0.0000 0.0000 1758.6255 -7487.2825 297.7727 -9245.9080 -7494.7838 300.5757 473.4952 548.3383 30650.8931 -0.7938 88.2089
ENERGY: 1200000 2.0394 10.5808 6.4446 0.0000 -10760.9838 1471.3239 0.0000 0.0000 1794.7199 -7475.8752 303.8843 -9270.5951 -7500.1326 300.6585 369.9335 419.7809 29906.8842 -4.2035 75.4716
ENERGY: 1500000 3.1895 8.9970 5.0317 0.0000 -10790.6533 1547.4012 0.0000 0.0000 1825.2574 -7400.7765 309.0549 -9226.0339 -7502.1831 300.7414 848.3281 939.0713 30419.1595 61.9939 138.9973
TCL: Running FEP window   6: Lambda1 0.25   Lambda2 0.3    [dLambda 0.04999999999999999]
TCL: Setting parameter firsttimestep to 0
TCL: Setting parameter alchLambda to 0.25
Info: NONBONDED TABLE R-SQUARED SPACING: 0.0625
Info: NONBONDED TABLE SIZE: 705 POINTS
TCL: Setting parameter alchLambda2 to 0.3
Info: NONBONDED TABLE R-SQUARED SPACING: 0.0625
Info: NONBONDED TABLE SIZE: 705 POINTS
TCL: Running for 1500000 steps
ETITLE: TS BOND ANGLE DIHED IMPRP ELECT VDW BOUNDARY MISC KINETIC TOTAL TEMP POTENTIAL TOTALAVG TEMPAVG PRESSURE GPRESSURE VOLUME PRESSAVG GPRESSAVG
ENERGY: 0 3.1895 8.9970 5.0317 0.0000 -10790.6551 1547.4741 0.0000 0.0000 1824.3386 -7401.6242 308.8994 -9225.9628 -7401.6242 308.8994 858.8213 944.7833 30419.1595 858.8213 944.7833
ENERGY: 300000 1.1338 7.9496 6.0556 0.0000 -10733.4950 1445.2035 0.0000 0.0000 1751.9701 -7521.1824 296.6458 -9273.1525 -7477.8987 301.0037 -38.2368 109.2876 30229.0771 381.0395 440.8353
ENERGY: 600000 3.4850 9.3928 5.8109 0.0000 -10747.9945 1396.0142 0.0000 0.0000 1749.5855 -7583.7060 296.2421 -9333.2915 -7501.9010 299.8654 -773.8137 -691.1392 30555.1351 37.4475 101.9431
ENERGY: 900000 2.9502 13.2212 5.3287 0.0000 -10755.8427 1462.7580 0.0000 0.0000 1774.2487 -7497.3359 300.4181 -9271.5846 -7495.4959 301.1141 -34.8528 21.7246 30377.0380 135.2211 188.8992
ENERGY: 1200000 1.1421 10.4448 7.2119 0.0000 -10656.2816 1394.2884 0.0000 0.0000 1760.8672 -7482.3272 298.1523 -9243.1944 -7497.2000 300.9854 -101.5296 -88.2700 29975.1171 14.0788 61.7413
ENERGY: 1500000 1.4370 12.3519 5.6926 0.0000 -10586.1326 1346.7430 0.0000 0.0000 1779.4924 -7440.4157 301.3060 -9219.9080 -7495.7683 301.3232 -709.1284 -678.3655 30763.6130 -24.6847 21.4752
TCL: Running FEP window   7: Lambda1 0.3    Lambda2 0.35   [dLambda 0.04999999999999999]
TCL: Setting parameter firsttimestep to 0
TCL: Setting parameter alchLambda to 0.3
Info: NONBONDED TABLE R-SQUARED SPACING: 0.0625
Info: NONBONDED TABLE SIZE: 705 POINTS
TCL: Setting parameter alchLambda2 to 0.35
Info: NONBONDED TABLE R-SQUARED SPACING: 0.0625
Info: NONBONDED TABLE SIZE: 705 POINTS
TCL: Running for 1500000 steps
ETITLE: TS BOND ANGLE DIHED IMPRP ELECT VDW BOUNDARY MISC KINETIC TOTAL TEMP POTENTIAL TOTALAVG TEMPAVG PRESSURE GPRESSURE VOLUME PRESSAVG GPRESSAVG
ENERGY: 0 1.4370 12.3519 5.6926 0.0000 -10586.1309 1347.7920 0.0000 0.0000 1778.6439 -7440.2134 301.1623 -9218.8573 -7440.2134 301.1623 -743.0807 -664.3350 30763.6130 -743.0807 -664.3350
ENERGY: 300000 2.7979 8.4898 5.7429 0.0000 -10641.7202 1355.8450 0.0000 0.0000 1789.0262 -7479.8184 302.9202 -9268.8445 -7464.1851 301.1112 -712.4953 -615.1389 30570.0674 -265.3565 -202.1995
ENERGY: 600000 2.4382 17.9866 5.3014 0.0000 -10770.4818 1456.8301 0.0000 0.0000 1821.5466 -7466.3791 308.4266 -9287.9257 -7467.4088 303.2816 -31.2218 50.0942 30746.7409 -63.6095 23.1006
ENERGY: 900000 2.5685 8.6194 6.1243 0.0000 -10817.5092 1545.5283 0.0000 0.0000 1746.2579 -7508.4109 295.6786 -9254.6687 -7489.8316 300.4775 426.0067 573.4685 30752.2893 52.4297 144.4911
ENERGY: 1200000 2.7137 11.7552 6.9799 0.0000 -10727.4229 1380.4506 0.0000 0.0000 1742.4608 -7583.0627 295.0357 -9325.5235 -7497.1016 300.7019 -569.6169 -561.1425 30400.2401 -76.6791 6.6691
ENERGY: 1500000 1.3835 8.2429 6.9974 0.0000 -10716.4314 1447.1934 0.0000 0.0000 1764.1650 -7488.4492 298.7107 -9252.6142 -7503.3065 299.9890 52.2724 90.7620 30416.2127 -85.6319 -6.2611
TCL: Running FEP window   8: Lambda1 0.35   Lambda2 0.39999999999999997 [dLambda 0.04999999999999999]
TCL: Setting parameter firsttimestep to 0
TCL: Setting parameter alchLambda to 0.35
Info: NONBONDED TABLE R-SQUARED SPACING: 0.0625
Info: NONBONDED TABLE SIZE: 705 POINTS
TCL: Setting parameter alchLambda2 to 0.39999999999999997
Info: NONBONDED TABLE R-SQUARED SPACING: 0.0625
Info: NONBONDED TABLE SIZE: 705 POINTS
TCL: Running for 1500000 steps
ETITLE: TS BOND ANGLE DIHED IMPRP ELECT VDW BOUNDARY MISC KINETIC TOTAL TEMP POTENTIAL TOTALAVG TEMPAVG PRESSURE GPRESSURE VOLUME PRESSAVG GPRESSAVG
ENERGY: 0 1.3835 8.2429 6.9974 0.0000 -10716.4313 1447.7424 0.0000 0.0000 1763.2924 -7488.7726 298.5629 -9252.0650 -7488.7726 298.5629 24.5361 101.2947 30416.2127 24.5361 101.2947
ENERGY: 300000 2.5756 8.8202 8.2522 0.0000 -10696.9190 1381.2167 0.0000 0.0000 1736.7949 -7559.2594 294.0764 -9296.0543 -7549.5496 298.8411 -751.9827 -684.3978 30576.6340 -341.9489 -310.2153
ENERGY: 600000 0.8829 7.5821 5.9544 0.0000 -10921.8724 1483.9019 0.0000 0.0000 1724.4289 -7699.1222 291.9825 -9423.5511 -7565.2932 298.1392 -179.3401 -58.7735 30335.6396 -289.2464 -239.3493
ENERGY: 900000 1.7141 13.3093 7.3649 0.0000 -10845.2858 1526.8254 0.0000 0.0000 1797.1886 -7498.8835 304.3023 -9296.0721 -7540.2642 300.1726 797.1160 861.3105 30126.2853 -169.3767 -110.5994
ENERGY: 1200000 2.7017 9.1045 6.8557 0.0000 -10868.7146 1465.6354 0.0000 0.0000 1837.0326 -7547.3847 311.0487 -9384.4173 -7526.0340 301.7408 -172.6495 -120.1349 30356.1546 -294.3808 -234.6501
ENERGY: 1500000 2.8918 7.7979 6.9578 0.0000 -10785.1801 1499.9651 0.0000 0.0000 1780.5540 -7487.0136 301.4857 -9267.5676 -7525.1540 300.9403 152.7338 268.3105 30861.9347 -247.8837 -181.5012
TCL: Running FEP window   9: Lambda1 0.39999999999999997 Lambda2 0.44999999999999996 [dLambda 0.04999999999999999]
TCL: Setting parameter firsttimestep to 0
TCL: Setting parameter alchLambda to 0.39999999999999997
Info: NONBONDED TABLE R-SQUARED SPACING: 0.0625
Info: NONBONDED TABLE SIZE: 705 POINTS
TCL: Setting parameter alchLambda2 to 0.44999999999999996
Info: NONBONDED TABLE R-SQUARED SPACING: 0.0625
Info: NONBONDED TABLE SIZE: 705 POINTS
TCL: Running for 1500000 steps
ETITLE: TS BOND ANGLE DIHED IMPRP ELECT VDW BOUNDARY MISC KINETIC TOTAL TEMP POTENTIAL TOTALAVG TEMPAVG PRESSURE GPRESSURE VOLUME PRESSAVG GPRESSAVG
ENERGY: 0 2.8918 7.7979 6.9578 0.0000 -10785.1807 1499.6417 0.0000 0.0000 1779.6642 -7488.2274 301.3351 -9267.8916 -7488.2274 301.3351 184.4410 272.5216 30861.9347 184.4410 272.5216
ENERGY: 300000 1.9235 11.6180 5.8058 0.0000 -10679.8444 1410.8896 0.0000 0.0000 1782.3718 -7467.2356 301.7935 -9249.6074 -7513.9361 301.5822 -170.3908 -112.5069 30470.2930 -28.4933 34.2822
ENERGY: 600000 2.5364 11.7507 5.2016 0.0000 -10809.4332 1498.4318 0.0000 0.0000 1719.8837 -7571.6289 291.2129 -9291.5127 -7506.0668 300.0742 441.5602 449.2802 30378.5017 -58.2821 -8.0275
ENERGY: 900000 3.7878 6.9554 4.4967 0.0000 -10913.4423 1556.4894 0.0000 0.0000 1722.3411 -7619.3718 291.6290 -9341.7129 -7511.1021 299.6871 407.0051 508.4910 30577.0583 56.1429 115.6902
ENERGY: 1200000 1.8026 8.8107 6.3997 0.0000 -10574.1051 1387.5250 0.0000 0.0000 1766.9000 -7402.6672 299.1738 -9169.5672 -7492.7107 299.7175 -505.3454 -427.1532 30856.7396 14.1769 72.7126
ENERGY: 1500000 3.4498 10.5979 5.2180 0.0000 -10821.1554 1491.7175 0.0000 0.0000 1820.5656 -7489.6067 308.2605 -9310.1722 -7496.2466 299.9960 275.9159 312.3885 30508.6330 -4.3031 54.2350
TCL: Running FEP window  10: Lambda1 0.44999999999999996 Lambda2 0.49999999999999994 [dLambda 0.04999999999999999]
TCL: Setting parameter firsttimestep to 0
TCL: Setting parameter alchLambda to 0.44999999999999996
Info: NONBONDED TABLE R-SQUARED SPACING: 0.0625
Info: NONBONDED TABLE SIZE: 705 POINTS
TCL: Setting parameter alchLambda2 to 0.49999999999999994
Info: NONBONDED TABLE R-SQUARED SPACING: 0.0625
Info: NONBONDED TABLE SIZE: 705 POINTS
TCL: Running for 1500000 steps
ETITLE: TS BOND ANGLE DIHED IMPRP ELECT VDW BOUNDARY MISC KINETIC TOTAL TEMP POTENTIAL TOTALAVG TEMPAVG PRESSURE GPRESSURE VOLUME PRESSAVG GPRESSAVG
ENERGY: 0 3.4498 10.5978 5.2180 0.0000 -10821.1555 1492.6540 0.0000 0.0000 1819.7008 -7489.5350 308.1141 -9309.2358 -7489.5350 308.1141 236.2406 323.8931 30508.6330 236.2406 323.8931
ENERGY: 300000 1.8748 12.6494 5.0813 0.0000 -10817.2220 1534.0648 0.0000 0.0000 1798.3515 -7465.2001 304.4992 -9263.5516 -7489.8979 303.7022 829.6197 877.3902 30272.8391 386.2957 454.0737
ENERGY: 600000 1.5690 12.8507 6.1912 0.0000 -10831.6505 1464.3422 0.0000 0.0000 1770.8908 -7575.8066 299.8495 -9346.6974 -7500.7635 302.6028 -110.9062 -17.6226 30082.8111 282.2379 365.1941
ENERGY: 900000 1.6808 9.2657 5.6972 0.0000 -10706.4239 1413.0995 0.0000 0.0000 1770.2355 -7506.4451 299.7386 -9276.6806 -7507.5183 302.8904 -260.5776 -198.8320 30402.3445 39.1809 116.0830
ENERGY: 1200000 1.4368 9.5256 6.6382 0.0000 -10793.7323 1462.6372 0.0000 0.0000 1833.0037 -7480.4909 310.3666 -9313.4946 -7502.7454 303.3862 255.3908 345.5581 30095.7844 63.0580 139.0265
ENERGY: 1500000 0.9665 10.2247 6.0347 0.0000 -10725.1117 1457.3589 0.0000 0.0000 1771.5352 -7478.9917 299.9586 -9250.5269 -7497.4245 302.5061 343.5980 346.1436 30371.8342 92.0800 153.2704
TCL: Running FEP window  11: Lambda1 0.49999999999999994 Lambda2 0.5499999999999999 [dLambda 0.04999999999999999]
TCL: Setting parameter firsttimestep to 0
TCL: Setting parameter alchLambda to 0.49999999999999994
Info: NONBONDED TABLE R-SQUARED SPACING: 0.0625
Info: NONBONDED TABLE SIZE: 705 POINTS
TCL: Setting parameter alchLambda2 to 0.5499999999999999
Info: NONBONDED TABLE R-SQUARED SPACING: 0.0625
Info: NONBONDED TABLE SIZE: 705 POINTS
TCL: Running for 1500000 steps
ETITLE: TS BOND ANGLE DIHED IMPRP ELECT VDW BOUNDARY MISC KINETIC TOTAL TEMP POTENTIAL TOTALAVG TEMPAVG PRESSURE GPRESSURE VOLUME PRESSAVG GPRESSAVG
ENERGY: 0 0.9665 10.2247 6.0347 0.0000 -10725.1108 1456.8750 0.0000 0.0000 1770.6710 -7480.3389 299.8123 -9251.0100 -7480.3389 299.8123 267.7217 350.7361 30371.8342 267.7217 350.7361
ENERGY: 300000 2.7223 13.2397 5.2534 0.0000 -10787.1973 1494.8940 0.0000 0.0000 1770.3204 -7500.7674 299.7529 -9271.0878 -7502.5919 298.1732 384.3489 449.6494 30642.6856 391.7704 447.3668
ENERGY: 600000 0.8442 9.1643 5.5837 0.0000 -10633.6507 1382.9752 0.0000 0.0000 1808.3117 -7426.7715 306.1857 -9235.0832 -7490.9023 300.8405 -344.7565 -356.7689 30644.6709 90.4676 149.4922
ENERGY: 900000 2.8680 11.4074 4.9993 0.0000 -10728.9757 1491.4850 0.0000 0.0000 1763.2247 -7454.9913 298.5515 -9218.2160 -7500.5968 300.1912 323.8411 372.5922 30716.0623 134.6101 183.2871
ENERGY: 1200000 2.3338 12.3339 6.4990 0.0000 -10774.4079 1440.8673 0.0000 0.0000 1712.8866 -7599.4873 290.0282 -9312.3739 -7520.1189 298.6078 -68.4726 -74.0823 30391.6252 128.4472 177.1596
ENERGY: 1500000 1.7158 10.7436 6.1075 0.0000 -10610.0105 1368.3624 0.0000 0.0000 1823.5212 -7399.5601 308.7610 -9223.0813 -7508.1199 299.5718 -327.0041 -363.9225 30556.1291 69.3024 114.1354
TCL: Running FEP window  12: Lambda1 0.5499999999999999 Lambda2 0.6    [dLambda 0.050000000000000044]
TCL: Setting parameter firsttimestep to 0
TCL: Setting parameter alchLambda to 0.5499999999999999
Info: NONBONDED TABLE R-SQUARED SPACING: 0.0625
Info: NONBONDED TABLE SIZE: 705 POINTS
TCL: Setting parameter alchLambda2 to 0.6
Info: NONBONDED TABLE R-SQUARED SPACING: 0.0625
Info: NONBONDED TABLE SIZE: 705 POINTS
TCL: Running for 1500000 steps
ETITLE: TS BOND ANGLE DIHED IMPRP ELECT VDW BOUNDARY MISC KINETIC TOTAL TEMP POTENTIAL TOTALAVG TEMPAVG PRESSURE GPRESSURE VOLUME PRESSAVG GPRESSAVG
ENERGY: 0 1.7158 10.7436 6.1075 0.0000 -10610.2300 1368.5351 0.0000 0.0000 1822.6167 -7400.5114 308.6078 -9223.1281 -7400.5114 308.6078 -423.5155 -349.9712 30556.1291 -423.5155 -349.9712
ENERGY: 300000 1.2709 9.2995 5.0654 0.0000 -10737.1912 1402.4028 0.0000 0.0000 1757.0720 -7562.0806 297.5097 -9319.1527 -7491.0789 302.1523 -409.8092 -331.9083 30371.2289 -146.0315 -49.9161
ENERGY: 600000 2.2375 11.4550 5.3299 0.0000 -10937.9292 1498.8194 0.0000 0.0000 1798.0021 -7622.0852 304.4401 -9420.0874 -7531.7174 300.5117 367.7899 419.0228 29767.5734 55.0248 148.7084
ENERGY: 900000 3.8961 12.0747 6.1858 0.0000 -10780.1179 1460.7947 0.0000 0.0000 1796.1272 -7501.0393 304.1226 -9297.1665 -7531.2858 300.9148 112.4790 167.5175 30228.5129 21.1196 102.9875
ENERGY: 1200000 0.5860 12.0565 5.6650 0.0000 -10730.0818 1388.2170 0.0000 0.0000 1708.0481 -7615.5092 289.2089 -9323.5573 -7521.7185 299.9055 -456.6732 -371.1412 30036.3421 -58.0016 19.6578
ENERGY: 1500000 1.1647 8.9959 7.1026 0.0000 -10564.4104 1338.7101 0.0000 0.0000 1764.1101 -7444.3269 298.7014 -9208.4370 -7512.7991 300.2942 -622.9162 -598.3495 30786.5145 -67.6139 4.5542
TCL: Running FEP window  13: Lambda1 0.6    Lambda2 0.65   [dLambda 0.050000000000000044]
TCL: Setting parameter firsttimestep to 0
TCL: Setting parameter alchLambda to 0.6
Info: NONBONDED TABLE R-SQUARED SPACING: 0.0625
Info: NONBONDED TABLE SIZE: 705 POINTS
TCL: Setting parameter alchLambda2 to 0.65
Info: NONBONDED TABLE R-SQUARED SPACING: 0.0625
Info: NONBONDED TABLE SIZE: 705 POINTS
TCL: Running for 1500000 steps
ETITLE: TS BOND ANGLE DIHED IMPRP ELECT VDW BOUNDARY MISC KINETIC TOTAL TEMP POTENTIAL TOTALAVG TEMPAVG PRESSURE GPRESSURE VOLUME PRESSAVG GPRESSAVG
ENERGY: 0 1.1647 8.9959 7.1026 0.0000 -10564.4792 1338.4756 0.0000 0.0000 1763.2206 -7445.5197 298.5508 -9208.7403 -7445.5197 298.5508 -689.5129 -590.0447 30786.5145 -689.5129 -590.0447
ENERGY: 300000 0.7702 13.9612 6.4905 0.0000 -10615.2749 1322.6336 0.0000 0.0000 1697.9450 -7573.4745 287.4982 -9271.4195 -7450.9618 300.9038 -690.6019 -665.9358 30261.8827 -161.4332 -97.9006
ENERGY: 600000 1.8720 9.6658 6.0651 0.0000 -10638.0440 1407.1024 0.0000 0.0000 1741.4224 -7471.9163 294.8599 -9213.3387 -7474.7110 299.1792 -286.2478 -225.3588 30744.2377 -198.7381 -124.6101
ENERGY: 900000 2.4874 6.7453 6.4320 0.0000 -10956.7128 1602.1879 0.0000 0.0000 1813.4700 -7525.3903 307.0591 -9338.8603 -7489.1721 300.4005 1335.9835 1446.0336 30052.2374 -18.6860 55.5280
ENERGY: 1200000 2.6982 7.1585 7.7723 0.0000 -10740.0670 1419.0215 0.0000 0.0000 1778.9627 -7524.4539 301.2163 -9303.4166 -7493.2639 300.7504 -167.3761 -60.8026 30128.8999 46.3969 126.9055
ENERGY: 1500000 2.2132 8.9073 5.1843 0.0000 -10720.3775 1397.1955 0.0000 0.0000 1826.6084 -7480.2689 309.2837 -9306.8772 -7495.1782 301.9872 -360.5428 -267.7171 30235.0915 37.4655 112.2284
TCL: Running FEP window  14: Lambda1 0.65   Lambda2 0.7000000000000001 [dLambda 0.050000000000000044]
TCL: Setting parameter firsttimestep to 0
TCL: Setting parameter alchLambda to 0.65
Info: NONBONDED TABLE R-SQUARED SPACING: 0.0625
Info: NONBONDED TABLE SIZE: 705 POINTS
TCL: Setting parameter alchLambda2 to 0.7000000000000001
Info: NONBONDED TABLE R-SQUARED SPACING: 0.0625
Info: NONBONDED TABLE SIZE: 705 POINTS
TCL: Running for 1500000 steps
ETITLE: TS BOND ANGLE DIHED IMPRP ELECT VDW BOUNDARY MISC KINETIC TOTAL TEMP POTENTIAL TOTALAVG TEMPAVG PRESSURE GPRESSURE VOLUME PRESSAVG GPRESSAVG
ENERGY: 0 2.2132 8.9073 5.1843 0.0000 -10720.5426 1397.2143 0.0000 0.0000 1825.6862 -7481.3373 309.1276 -9307.0236 -7481.3373 309.1276 -331.0349 -257.0575 30235.0915 -331.0349 -257.0575
ENERGY: 300000 1.7466 9.1910 5.8464 0.0000 -10674.3202 1374.4337 0.0000 0.0000 1827.6781 -7455.4245 309.4648 -9283.1025 -7502.5794 304.5299 -752.6046 -635.6824 30720.5011 -209.6799 -138.8910
ENERGY: 600000 4.9449 8.2350 5.7794 0.0000 -10705.4651 1366.3009 0.0000 0.0000 1755.6136 -7564.5913 297.2628 -9320.2049 -7518.0534 301.4384 -1046.0460 -985.0176 30556.4417 -283.6059 -204.9091
ENERGY: 900000 0.4783 10.1955 6.5134 0.0000 -10679.3953 1368.4658 0.0000 0.0000 1802.0128 -7491.7295 305.1191 -9293.7423 -7515.4954 301.5128 -746.3425 -621.8959 30707.3782 -267.6821 -180.4398
ENERGY: 1200000 2.5948 7.5121 5.6294 0.0000 -10588.4086 1355.1769 0.0000 0.0000 1765.2553 -7452.2401 298.8953 -9217.4955 -7513.2502 299.9862 -652.5112 -546.0632 30813.7670 -242.6726 -157.3139
ENERGY: 1500000 1.8001 8.7419 6.0970 0.0000 -10921.7294 1544.9190 0.0000 0.0000 1771.7659 -7588.4055 299.9977 -9360.1714 -7523.5455 300.1410 472.0930 554.2877 30417.9811 -175.4125 -90.9522
TCL: Running FEP window  15: Lambda1 0.7000000000000001 Lambda2 0.7500000000000001 [dLambda 0.050000000000000044]
TCL: Setting parameter firsttimestep to 0
TCL: Setting parameter alchLambda to 0.7000000000000001
Info: NONBONDED TABLE R-SQUARED SPACING: 0.0625
Info: NONBONDED TABLE SIZE: 705 POINTS
TCL: Setting parameter alchLambda2 to 0.7500000000000001
Info: NONBONDED TABLE R-SQUARED SPACING: 0.0625
Info: NONBONDED TABLE SIZE: 705 POINTS
TCL: Running for 1500000 steps
ETITLE: TS BOND ANGLE DIHED IMPRP ELECT VDW BOUNDARY MISC KINETIC TOTAL TEMP POTENTIAL TOTALAVG TEMPAVG PRESSURE GPRESSURE VOLUME PRESSAVG GPRESSAVG
ENERGY: 0 1.8001 8.7419 6.0970 0.0000 -10922.5043 1544.5780 0.0000 0.0000 1770.9140 -7590.3733 299.8534 -9361.2872 -7590.3733 299.8534 468.8748 560.6752 30417.9811 468.8748 560.6752
ENERGY: 300000 1.3219 9.8291 5.3683 0.0000 -10541.4969 1373.0307 0.0000 0.0000 1737.2296 -7414.7174 294.1500 -9151.9470 -7543.2183 295.0621 -162.6788 -68.0082 30791.2563 -62.7406 26.9406
ENERGY: 600000 2.8627 9.0154 4.7927 0.0000 -10725.1659 1379.7045 0.0000 0.0000 1789.5470 -7539.2436 303.0084 -9328.7906 -7534.0327 297.7280 -409.0734 -374.3089 30258.0428 -241.6479 -167.2508
ENERGY: 900000 2.5336 10.1461 6.4971 0.0000 -10656.4536 1366.0992 0.0000 0.0000 1743.0182 -7528.1594 295.1301 -9271.1776 -7527.2766 297.7433 -378.0047 -228.9291 30232.1659 -291.0170 -203.2868
ENERGY: 1200000 0.7569 11.1711 5.4830 0.0000 -10741.2567 1510.9130 0.0000 0.0000 1766.0597 -7446.8730 299.0315 -9212.9328 -7522.6931 297.5073 1070.5268 1139.9325 30057.8049 -121.2480 -32.5401
ENERGY: 1500000 1.9474 10.8239 5.1879 0.0000 -10817.0099 1471.4856 0.0000 0.0000 1778.2854 -7549.2797 301.1016 -9327.5651 -7522.8558 298.1282 471.3050 619.9644 29908.6414 -94.3686 -9.0977
TCL: Running FEP window  16: Lambda1 0.7500000000000001 Lambda2 0.8000000000000002 [dLambda 0.050000000000000044]
TCL: Setting parameter firsttimestep to 0
TCL: Setting parameter alchLambda to 0.7500000000000001
Info: NONBONDED TABLE R-SQUARED SPACING: 0.0625
Info: NONBONDED TABLE SIZE: 705 POINTS
TCL: Setting parameter alchLambda2 to 0.8000000000000002
Info: NONBONDED TABLE R-SQUARED SPACING: 0.0625
Info: NONBONDED TABLE SIZE: 705 POINTS
TCL: Running for 1500000 steps
ETITLE: TS BOND ANGLE DIHED IMPRP ELECT VDW BOUNDARY MISC KINETIC TOTAL TEMP POTENTIAL TOTALAVG TEMPAVG PRESSURE GPRESSURE VOLUME PRESSAVG GPRESSAVG
ENERGY: 0 1.9474 10.8238 5.1879 0.0000 -10817.9962 1471.6376 0.0000 0.0000 1777.4195 -7550.9800 300.9550 -9328.3994 -7550.9800 300.9550 527.4308 629.1632 29908.6414 527.4308 629.1632
ENERGY: 300000 1.7405 10.6213 7.0961 0.0000 -10742.9104 1445.1900 0.0000 0.0000 1797.6512 -7480.6113 304.3806 -9278.2625 -7482.2007 302.2494 3.3928 -25.1513 30593.5945 159.4019 183.6461
ENERGY: 600000 1.2343 9.3012 5.9343 0.0000 -10660.4992 1410.0081 0.0000 0.0000 1777.5704 -7456.4509 300.9805 -9234.0213 -7490.4003 300.1777 -239.9272 -146.7935 30836.9035 14.3461 51.3735
ENERGY: 900000 3.2581 9.2942 5.0240 0.0000 -10789.3858 1445.4644 0.0000 0.0000 1778.8634 -7547.4817 301.1995 -9326.3451 -7509.2629 298.9230 264.3269 354.9045 29854.3239 143.0757 191.4830
ENERGY: 1200000 2.3447 8.3637 5.6413 0.0000 -10721.7000 1402.7704 0.0000 0.0000 1737.4324 -7565.1474 294.1843 -9302.5798 -7515.7530 298.5717 -536.7688 -507.7616 30668.0547 54.8294 102.4084
ENERGY: 1500000 5.1707 11.2588 5.8892 0.0000 -10765.1645 1455.2407 0.0000 0.0000 1810.5143 -7477.0908 306.5586 -9287.6051 -7506.7216 299.9063 -74.8571 -42.2241 30782.1807 23.1028 68.9985
TCL: Running FEP window  17: Lambda1 0.8000000000000002 Lambda2 0.8500000000000002 [dLambda 0.050000000000000044]
TCL: Setting parameter firsttimestep to 0
TCL: Setting parameter alchLambda to 0.8000000000000002
Info: NONBONDED TABLE R-SQUARED SPACING: 0.0625
Info: NONBONDED TABLE SIZE: 705 POINTS
TCL: Setting parameter alchLambda2 to 0.8500000000000002
Info: NONBONDED TABLE R-SQUARED SPACING: 0.0625
Info: NONBONDED TABLE SIZE: 705 POINTS
TCL: Running for 1500000 steps
ETITLE: TS BOND ANGLE DIHED IMPRP ELECT VDW BOUNDARY MISC KINETIC TOTAL TEMP POTENTIAL TOTALAVG TEMPAVG PRESSURE GPRESSURE VOLUME PRESSAVG GPRESSAVG
ENERGY: 0 5.1707 11.2588 5.8892 0.0000 -10766.2921 1455.9035 0.0000 0.0000 1809.6388 -7478.4311 306.4104 -9288.0699 -7478.4311 306.4104 -94.1223 -21.2512 30782.1807 -94.1223 -21.2512
ENERGY: 300000 4.2577 8.9188 6.2244 0.0000 -10712.3245 1434.8064 0.0000 0.0000 1780.8549 -7477.2622 301.5367 -9258.1171 -7545.8524 298.3342 -192.6784 -137.0199 30545.0390 -178.9243 -111.7565
ENERGY: 600000 4.5316 12.5278 4.8938 0.0000 -10613.7092 1373.7660 0.0000 0.0000 1755.4748 -7462.5152 297.2393 -9217.9901 -7544.2202 295.4288 -699.8073 -539.5414 31092.8826 -308.0436 -225.3184
ENERGY: 900000 3.2070 11.8944 7.5245 0.0000 -10710.8083 1397.0232 0.0000 0.0000 1792.5677 -7498.5915 303.5199 -9291.1592 -7520.5843 297.6960 -240.2259 -182.4015 30307.5438 -218.3977 -137.6990
ENERGY: 1200000 0.6658 12.6000 6.0054 0.0000 -10688.6312 1358.9772 0.0000 0.0000 1799.0452 -7511.3375 304.6167 -9310.3828 -7512.3824 298.4649 -802.0865 -743.2971 30698.5849 -242.6109 -167.6435
ENERGY: 1500000 0.4994 12.6722 6.2100 0.0000 -10743.8334 1431.1462 0.0000 0.0000 1726.8145 -7566.4911 292.3865 -9293.3055 -7523.8275 297.5888 21.4812 12.1196 30536.3412 -212.5156 -144.8952
TCL: Running FEP window  18: Lambda1 0.8500000000000002 Lambda2 0.9000000000000002 [dLambda 0.050000000000000044]
TCL: Setting parameter firsttimestep to 0
TCL: Setting parameter alchLambda to 0.8500000000000002
Info: NONBONDED TABLE R-SQUARED SPACING: 0.0625
Info: NONBONDED TABLE SIZE: 705 POINTS
TCL: Setting parameter alchLambda2 to 0.9000000000000002
Info: NONBONDED TABLE R-SQUARED SPACING: 0.0625
Info: NONBONDED TABLE SIZE: 705 POINTS
TCL: Running for 1500000 steps
ETITLE: TS BOND ANGLE DIHED IMPRP ELECT VDW BOUNDARY MISC KINETIC TOTAL TEMP POTENTIAL TOTALAVG TEMPAVG PRESSURE GPRESSURE VOLUME PRESSAVG GPRESSAVG
ENERGY: 0 0.4994 12.6722 6.2100 0.0000 -10744.5189 1432.3256 0.0000 0.0000 1725.9824 -7566.8292 292.2456 -9292.8116 -7566.8292 292.2456 -43.1210 35.7883 30536.3412 -43.1210 35.7883
ENERGY: 300000 3.0499 8.9976 7.1428 0.0000 -10828.6654 1541.4727 0.0000 0.0000 1782.9850 -7485.0174 301.8973 -9268.0024 -7527.3471 294.8340 743.3528 801.5152 30474.1060 203.5484 256.9350
ENERGY: 600000 1.6463 9.0500 5.7870 0.0000 -10833.4055 1449.5906 0.0000 0.0000 1809.0559 -7558.2758 306.3117 -9367.3316 -7509.7213 298.4344 10.0113 81.8313 30259.7470 152.2542 195.3029
ENERGY: 900000 2.3241 10.9477 6.1634 0.0000 -10592.2177 1345.0280 0.0000 0.0000 1790.2505 -7437.5040 303.1275 -9227.7545 -7504.7227 297.0974 -349.9504 -323.8371 30675.6315 -8.0265 27.9327
ENERGY: 1200000 3.0268 8.8276 6.6296 0.0000 -10760.8456 1475.8389 0.0000 0.0000 1761.6100 -7504.9128 298.2781 -9266.5228 -7493.2343 298.1150 270.0426 347.4685 30734.5688 -18.5806 18.6062
ENERGY: 1500000 1.2006 13.0610 5.3263 0.0000 -10677.5831 1372.2480 0.0000 0.0000 1787.8985 -7497.8486 302.7293 -9285.7471 -7500.9625 297.9307 -690.2311 -624.0342 30710.2326 -58.9034 -16.8310
TCL: Running FEP window  19: Lambda1 0.9000000000000002 Lambda2 0.9500000000000003 [dLambda 0.050000000000000044]
TCL: Setting parameter firsttimestep to 0
TCL: Setting parameter alchLambda to 0.9000000000000002
Info: NONBONDED TABLE R-SQUARED SPACING: 0.0625
Info: NONBONDED TABLE SIZE: 705 POINTS
TCL: Setting parameter alchLambda2 to 0.9500000000000003
Info: NONBONDED TABLE R-SQUARED SPACING: 0.0625
Info: NONBONDED TABLE SIZE: 705 POINTS
TCL: Running for 1500000 steps
ETITLE: TS BOND ANGLE DIHED IMPRP ELECT VDW BOUNDARY MISC KINETIC TOTAL TEMP POTENTIAL TOTALAVG TEMPAVG PRESSURE GPRESSURE VOLUME PRESSAVG GPRESSAVG
ENERGY: 0 1.2006 13.0610 5.3263 0.0000 -10678.7375 1373.9066 0.0000 0.0000 1787.0490 -7498.1938 302.5855 -9285.2429 -7498.1938 302.5855 -683.9102 -593.4462 30710.2326 -683.9102 -593.4462
ENERGY: 300000 1.6262 11.1936 7.1165 0.0000 -10751.0428 1448.7869 0.0000 0.0000 1800.7041 -7481.6156 304.8975 -9282.3197 -7517.2029 299.8021 95.9898 135.1531 30635.8572 -328.4435 -253.3818
ENERGY: 600000 1.4523 11.6644 5.0246 0.0000 -10715.9252 1427.5733 0.0000 0.0000 1776.6916 -7493.5189 300.8317 -9270.2105 -7504.4380 300.0273 58.4521 209.7311 30261.9372 -181.3878 -99.9032
ENERGY: 900000 2.2809 9.1955 7.1937 0.0000 -10864.4203 1443.8785 0.0000 0.0000 1731.1473 -7670.7244 293.1201 -9401.8717 -7517.9548 299.8183 -450.7226 -393.1424 30863.2173 -199.9578 -128.0076
ENERGY: 1200000 5.0305 11.4623 6.7023 0.0000 -10674.7157 1398.6467 0.0000 0.0000 1762.1014 -7490.7725 298.3613 -9252.8739 -7519.0069 300.0303 -297.7199 -200.8418 30737.0532 -244.3297 -168.0012
ENERGY: 1500000 1.1921 10.4993 4.9666 0.0000 -10669.6290 1382.9746 0.0000 0.0000 1713.7569 -7556.2396 290.1755 -9269.9964 -7523.7130 298.5253 -366.8864 -333.3170 30681.5147 -269.6798 -194.1088
TCL: Running FEP window  20: Lambda1 0.9500000000000003 Lambda2 1.0    [dLambda 0.04999999999999971]
TCL: Setting parameter firsttimestep to 0
TCL: Setting parameter alchLambda to 0.9500000000000003
Info: NONBONDED TABLE R-SQUARED SPACING: 0.0625
Info: NONBONDED TABLE SIZE: 705 POINTS
TCL: Setting parameter alchLambda2 to 1.0
Info: NONBONDED TABLE R-SQUARED SPACING: 0.0625
Info: NONBONDED TABLE SIZE: 705 POINTS
TCL: Running for 1500000 steps
ETITLE: TS BOND ANGLE DIHED IMPRP ELECT VDW BOUNDARY MISC KINETIC TOTAL TEMP POTENTIAL TOTALAVG TEMPAVG PRESSURE GPRESSURE VOLUME PRESSAVG GPRESSAVG
ENERGY: 0 1.1921 10.4993 4.9666 0.0000 -10670.8651 1382.8577 0.0000 0.0000 1712.8502 -7558.4992 290.0220 -9271.3494 -7558.4992 290.0220 -411.9058 -323.2132 30681.5147 -411.9058 -323.2132
ENERGY: 300000 2.2598 9.3274 5.0442 0.0000 -10611.2949 1367.0925 0.0000 0.0000 1783.1085 -7444.4625 301.9182 -9227.5710 -7510.0040 296.9417 -500.9506 -449.0057 30871.6590 -203.6654 -134.0351
ENERGY: 600000 2.4568 9.0857 6.2880 0.0000 -10904.5505 1519.4578 0.0000 0.0000 1781.5401 -7585.7221 301.6527 -9367.2622 -7537.5775 297.0813 548.8505 628.1638 30029.1319 -100.8131 -23.1652
ENERGY: 900000 3.2349 13.8227 6.9502 0.0000 -10722.0053 1446.2237 0.0000 0.0000 1782.2429 -7469.5310 301.7717 -9251.7739 -7521.5766 298.0315 153.8364 260.0287 30469.8910 -84.3391 -3.8025
ENERGY: 1200000 2.8025 15.7782 5.2085 0.0000 -10764.3371 1372.2951 0.0000 0.0000 1799.2564 -7568.9965 304.6524 -9368.2529 -7529.0120 299.6290 -759.3233 -711.2987 30541.6986 -126.9146 -48.8078
ENERGY: 1500000 3.3444 9.1436 5.2743 0.0000 -10795.9613 1534.1198 0.0000 0.0000 1706.5579 -7537.5214 288.9566 -9244.0793 -7520.2360 298.7937 639.0089 731.6057 30613.7381 -174.0867 -96.6237
TCL: Exiting due to exit command.
