Info: SIMULATION PARAMETERS:
Info: TIMESTEP               2
Info: NUMBER OF STEPS        0
Info: STEPS PER CYCLE        10
Info: PERIODIC CELL BASIS 1  31.5011 0 0
Info: PERIODIC CELL BASIS 2  0 30.4531 0
Info: PERIODIC CELL BASIS 3  0 0 31.3545
Info: PERIODIC CELL CENTER   0 0 0
Info: WRAPPING WATERS AROUND PERIODIC BOUNDARIES ON OUTPUT.
Info: WRAPPING ALL CLUSTERS AROUND PERIODIC BOUNDARIES ON OUTPUT.
Info: FIRST LDB TIMESTEP     50
Info: LAST LDB TIMESTEP     -1
Info: HOM BACKGROUND SCALING 1
Info: PME BACKGROUND SCALING 1
Info: MIN ATOMS PER PATCH    40
Info: EMPTY PATCH LOAD       40 ATOMS
Info: VELOCITY FILE          mobley_2390199_equil.vel
Info: CENTER OF MASS MOVING INITIALLY? NO
Info: DIELECTRIC             1
Info: EXCLUDE                SCALED ONE-FOUR
Info: 1-4 ELECTROSTATICS SCALED BY 0.833333
Info: MODIFIED 1-4 VDW PARAMETERS WILL BE USED
Info: DCD FILENAME           mobley_2390199_prod.dcd
Info: DCD FREQUENCY          100000
Info: DCD FIRST STEP         100000
Info: DCD FILE WILL CONTAIN UNIT CELL DATA
Info: XST FILENAME           mobley_2390199_prod.xst
Info: XST FREQUENCY          100000
Info: NO VELOCITY DCD OUTPUT
Info: NO FORCE DCD OUTPUT
Info: OUTPUT FILENAME        mobley_2390199_prod
Info: BINARY OUTPUT FILES WILL BE USED
Info: RESTART FILENAME       mobley_2390199_prod.restart
Info: RESTART FREQUENCY      100000
Info: BINARY RESTART FILES WILL BE USED
Info: CUTOFF                 9
Info: PAIRLIST DISTANCE      11
Info: PAIRLIST SHRINK RATE   0.01
Info: PAIRLIST GROW RATE     0.01
Info: PAIRLIST TRIGGER       0.3
Info: PAIRLISTS PER CYCLE    2
Info: PAIRLISTS ENABLED
Info: MARGIN                 2
Info: HYDROGEN GROUP CUTOFF  2.5
Info: PATCH DIMENSION        15.5
Info: ENERGY OUTPUT STEPS    100000
Info: ENERGY EVALUATION STEPS    100000
Info: OUTPUT ENERGY PRECISION 4
Info: CROSSTERM ENERGY INCLUDED IN DIHEDRAL
Info: TIMING OUTPUT STEPS    1000000
Info: PRESSURE OUTPUT STEPS  100000
Info: ALCHEMICAL FEP ON
Info: FEP CURRENT LAMBDA VALUE     0
Info: FEP COMPARISON LAMBDA VALUE  0.05
Info: FEP INTRA-ALCHEMICAL NON-BONDED INTERACTIONS WILL BE RETAINED
Info: FEP INTRA-ALCHEMICAL BONDED INTERACTIONS WILL BE RETAINED
Info: FEP VDW SHIFTING COEFFICIENT 5
Info: FEP ELEC. ACTIVE FOR ANNIHILATED PARTICLES BETWEEN LAMBDA = 0 AND LAMBDA = 0.5
Info: FEP ELEC. ACTIVE FOR EXNIHILATED PARTICLES BETWEEN LAMBDA = 0.5 AND LAMBDA = 1
Info: FEP VDW ACTIVE FOR ANNIHILATED PARTICLES BETWEEN LAMBDA = 0 AND LAMBDA = 1
Info: FEP VDW ACTIVE FOR EXNIHILATED PARTICLES BETWEEN LAMBDA = 0 AND LAMBDA = 1
Info: FEP BOND ACTIVE FOR ANNIHILATED PARTICLES BETWEEN LAMBDA = 1 AND LAMBDA = 1
Info: FEP BOND ACTIVE FOR EXNIHILATED PARTICLES BETWEEN LAMBDA = 0 AND LAMBDA = 0
Info: LANGEVIN DYNAMICS ACTIVE
Info: LANGEVIN TEMPERATURE   300
Info: LANGEVIN USING BBK INTEGRATOR
Info: LANGEVIN DAMPING COEFFICIENT IS 1 INVERSE PS
Info: LANGEVIN DYNAMICS APPLIED TO HYDROGENS
Info: LANGEVIN PISTON PRESSURE CONTROL ACTIVE
Info:        TARGET PRESSURE IS 1.01325 BAR
Info:     OSCILLATION PERIOD IS 50 FS
Info:             DECAY TIME IS 25 FS
Info:     PISTON TEMPERATURE IS 300 K
Info:       PRESSURE CONTROL IS GROUP-BASED
Info:    INITIAL STRAIN RATE IS 0.000639582 0.000639582 0.000639582
Info:       CELL FLUCTUATION IS ISOTROPIC
Info: PARTICLE MESH EWALD (PME) ACTIVE
Info: PME TOLERANCE               1e-06
Info: PME EWALD COEFFICIENT       0.348832
Info: PME INTERPOLATION ORDER     4
Info: PME GRID DIMENSIONS         32 32 32
Info: PME MAXIMUM GRID SPACING    1
Info: PME CALCULATION WILL BE PERFORMED ON GPU
Info: FULL ELECTROSTATIC EVALUATION FREQUENCY      2
Info: USING VERLET I (r-RESPA) MTS SCHEME.
Info: C1 SPLITTING OF LONG RANGE ELECTROSTATICS
Info: PLACING ATOMS IN PATCHES BY HYDROGEN GROUPS
Info: RIGID BONDS TO HYDROGEN : ALL
Info:         ERROR TOLERANCE : 1e-08
Info:          MAX ITERATIONS : 100
Info: RIGID WATER USING SETTLE ALGORITHM
Info: RANDOM NUMBER SEED     1743971141
Info: USE HYDROGEN BONDS?    NO
Info: Using AMBER format force field!
Info: AMBER PARM FILE        mobley_2390199.prmtop
Info: COORDINATE PDB         mobley_2390199.pdb
Info: Exclusions will be read from PARM file!
Info: SCNB (VDW SCALING)     2
Info: USING ARITHMETIC MEAN TO COMBINE L-J SIGMA PARAMETERS
Info: BINARY COORDINATES     mobley_2390199_equil.coor
Info: SUMMARY OF PARAMETERS:
Info: 6 BONDS
Info: 7 ANGLES
Info:   7 HARMONIC
Info:   0 COSINE-BASED
Info: 8 DIHEDRAL
Info: 0 IMPROPER
Info: 0 CROSSTERM
Info: 0 VDW
Info: 21 VDW_PAIRS
Info: 0 NBTHOLE_PAIRS
Info: To read alchdata from file: mobley_2390199.pdb
Info: To read alchflag data from column: 5
Info: STRUCTURE SUMMARY:
Info: 2932 ATOMS
Info: 2931 BONDS
Info: 39 ANGLES
Info: 57 DIHEDRALS
Info: 0 IMPROPERS
Info: 0 CROSSTERMS
Info: 3018 EXCLUSIONS
Info: 2924 RIGID BONDS
Info: ALCH: 0 ATOMS TO DISAPPEAR IN FINAL STATE
Info: ALCH: 22 ATOMS TO APPEAR IN FINAL STATE
Info: 5872 DEGREES OF FREEDOM
Info: 978 HYDROGEN GROUPS
Info: 4 ATOMS IN LARGEST HYDROGEN GROUP
Info: 978 MIGRATION GROUPS
Info: 4 ATOMS IN LARGEST MIGRATION GROUP
Info: TOTAL MASS = 17589.7 amu
Info: TOTAL CHARGE = -0.000399999 e
Info: MASS DENSITY = 0.971096 g/cm^3
Info: ATOM DENSITY = 0.0974784 atoms/A^3
Info: ADDED 0 IMPLICIT EXCLUSIONS
Info: NONBONDED TABLE R-SQUARED SPACING: 0.0625
Info: NONBONDED TABLE SIZE: 705 POINTS
Info: REMOVING COM VELOCITY 0.031997 0.142156 0.0635851
Info: Use 3D box decompostion in PME FFT.
Info: Updated CUDA force table with 4096 elements.
Info: Updated CUDA LJ table with 6 x 6 elements.
Info: Found 23 unique exclusion lists needing 64 bytes
TCL: Running for 1500000 steps
ETITLE: TS BOND ANGLE DIHED IMPRP ELECT VDW BOUNDARY MISC KINETIC TOTAL TEMP POTENTIAL TOTALAVG TEMPAVG PRESSURE GPRESSURE VOLUME PRESSAVG GPRESSAVG
ENERGY: 0 2.3455 8.7192 2.9485 0.0000 -10558.8406 1397.4095 0.0000 0.0000 1770.1933 -7377.2245 303.4066 -9147.4179 -7377.2245 303.4066 -124.6701 -43.6812 30078.4550 -124.6701 -43.6812
ENERGY: 300000 2.4817 9.2936 3.5411 0.0000 -10655.4398 1446.7268 0.0000 0.0000 1789.4018 -7403.9949 306.6989 -9193.3967 -7429.6700 300.0344 94.4602 154.1114 29674.9759 -112.5401 -44.1121
ENERGY: 600000 1.0176 10.4574 3.7405 0.0000 -10585.6179 1353.2126 0.0000 0.0000 1816.5149 -7400.6749 311.3460 -9217.1898 -7417.2603 301.0108 -719.0787 -598.4245 29825.7037 -113.1464 -39.6994
ENERGY: 900000 2.7941 8.7649 2.5625 0.0000 -10880.0893 1563.5367 0.0000 0.0000 1765.3867 -7537.0444 302.5828 -9302.4311 -7428.0833 301.1389 759.0186 800.2215 29645.2198 -77.8465 -12.1100
ENERGY: 1200000 1.8229 12.5834 2.7800 0.0000 -10780.2923 1485.7444 0.0000 0.0000 1753.2423 -7524.1193 300.5012 -9277.3616 -7435.3154 301.1313 210.3687 313.3862 29748.0858 -41.4794 25.4620
ENERGY: 1500000 0.9684 11.2072 5.2119 0.0000 -10602.7716 1445.6625 0.0000 0.0000 1700.8837 -7438.8379 291.5271 -9139.7216 -7439.2344 300.4732 148.8577 196.6089 29990.9587 -82.7880 -9.9574
TCL: Running FEP window   2: Lambda1 0.05   Lambda2 0.1    [dLambda 0.05  ]
TCL: Setting parameter firsttimestep to 0
TCL: Setting parameter alchLambda to 0.05
Info: NONBONDED TABLE R-SQUARED SPACING: 0.0625
Info: NONBONDED TABLE SIZE: 705 POINTS
TCL: Setting parameter alchLambda2 to 0.1
Info: NONBONDED TABLE R-SQUARED SPACING: 0.0625
Info: NONBONDED TABLE SIZE: 705 POINTS
TCL: Running for 1500000 steps
ETITLE: TS BOND ANGLE DIHED IMPRP ELECT VDW BOUNDARY MISC KINETIC TOTAL TEMP POTENTIAL TOTALAVG TEMPAVG PRESSURE GPRESSURE VOLUME PRESSAVG GPRESSAVG
ENERGY: 0 0.9684 11.2072 5.2119 0.0000 -10602.7715 1447.6702 0.0000 0.0000 1700.0142 -7437.6996 291.3781 -9137.7137 -7437.6996 291.3781 133.9210 203.9900 29990.9587 133.9210 203.9900
ENERGY: 300000 1.0328 13.3457 4.0061 0.0000 -10523.0273 1385.1374 0.0000 0.0000 1785.5370 -7333.9684 306.0365 -9119.5053 -7367.1559 302.1317 -198.3893 -163.2415 29858.0531 -291.7341 -232.6300
ENERGY: 600000 2.1563 13.4163 5.3264 0.0000 -10667.3691 1481.2953 0.0000 0.0000 1758.6560 -7406.5187 301.4291 -9165.1748 -7384.0557 301.7659 267.0529 340.6628 30080.4098 -151.0319 -81.5464
ENERGY: 900000 2.6411 12.7550 3.6487 0.0000 -10722.0041 1514.4692 0.0000 0.0000 1764.9405 -7423.5496 302.5063 -9188.4901 -7388.8190 302.6683 781.8343 837.9047 29386.7159 31.8297 91.8501
ENERGY: 1200000 2.1671 21.5720 4.7104 0.0000 -10629.0515 1446.9847 0.0000 0.0000 1767.3456 -7386.2717 302.9185 -9153.6173 -7385.1797 303.1022 162.8702 185.8273 29913.9561 -86.7897 -25.7221
ENERGY: 1500000 3.3223 11.3650 3.5504 0.0000 -10599.7353 1407.4317 0.0000 0.0000 1780.6398 -7393.4262 305.1971 -9174.0660 -7380.7354 304.0045 -689.4699 -603.9616 30450.8066 -133.1106 -73.0347
TCL: Running FEP window   3: Lambda1 0.1    Lambda2 0.15000000000000002 [dLambda 0.05000000000000002]
TCL: Setting parameter firsttimestep to 0
TCL: Setting parameter alchLambda to 0.1
Info: NONBONDED TABLE R-SQUARED SPACING: 0.0625
Info: NONBONDED TABLE SIZE: 705 POINTS
TCL: Setting parameter alchLambda2 to 0.15000000000000002
Info: NONBONDED TABLE R-SQUARED SPACING: 0.0625
Info: NONBONDED TABLE SIZE: 705 POINTS
TCL: Running for 1500000 steps
ETITLE: TS BOND ANGLE DIHED IMPRP ELECT VDW BOUNDARY MISC KINETIC TOTAL TEMP POTENTIAL TOTALAVG TEMPAVG PRESSURE GPRESSURE VOLUME PRESSAVG GPRESSAVG
ENERGY: 0 3.3222 11.3650 3.5504 0.0000 -10599.7354 1411.0864 0.0000 0.0000 1779.7861 -7390.6253 305.0508 -9170.4114 -7390.6253 305.0508 -680.1005 -592.6883 30450.8066 -680.1005 -592.6883
ENERGY: 300000 2.6149 7.3920 5.2308 0.0000 -10666.6728 1484.0292 0.0000 0.0000 1746.7648 -7420.6411 299.3910 -9167.4058 -7414.9973 300.2392 251.5616 263.8411 30274.6096 -382.9352 -336.3560
ENERGY: 600000 1.2812 8.8174 3.8779 0.0000 -10569.8266 1417.4297 0.0000 0.0000 1695.4319 -7442.9885 290.5927 -9138.4204 -7422.4736 296.7935 -57.7027 -31.2785 29943.5142 -381.8588 -342.0936
ENERGY: 900000 1.4330 12.5678 3.6363 0.0000 -10556.0095 1421.0978 0.0000 0.0000 1758.2982 -7358.9763 301.3678 -9117.2745 -7402.3795 299.6928 -188.5110 -75.9119 30066.3155 -286.5958 -234.2816
ENERGY: 1200000 3.0042 8.5905 4.0952 0.0000 -10458.7135 1323.1138 0.0000 0.0000 1672.3699 -7447.5399 286.6399 -9119.9097 -7413.7496 298.6787 -1063.3959 -979.5269 30085.2156 -261.2235 -207.0045
ENERGY: 1500000 1.6752 14.6457 3.0456 0.0000 -10506.3505 1386.6335 0.0000 0.0000 1700.5643 -7399.7863 291.4724 -9100.3506 -7418.0701 297.9099 -578.8099 -553.9601 30784.3047 -306.5681 -252.0980
TCL: Running FEP window   4: Lambda1 0.15000000000000002 Lambda2 0.2    [dLambda 0.04999999999999999]
TCL: Setting parameter firsttimestep to 0
TCL: Setting parameter alchLambda to 0.15000000000000002
Info: NONBONDED TABLE R-SQUARED SPACING: 0.0625
Info: NONBONDED TABLE SIZE: 705 POINTS
TCL: Setting parameter alchLambda2 to 0.2
Info: NONBONDED TABLE R-SQUARED SPACING: 0.0625
Info: NONBONDED TABLE SIZE: 705 POINTS
TCL: Running for 1500000 steps
ETITLE: TS BOND ANGLE DIHED IMPRP ELECT VDW BOUNDARY MISC KINETIC TOTAL TEMP POTENTIAL TOTALAVG TEMPAVG PRESSURE GPRESSURE VOLUME PRESSAVG GPRESSAVG
ENERGY: 0 1.6752 14.6457 3.0456 0.0000 -10506.3504 1386.9591 0.0000 0.0000 1699.7002 -7400.3247 291.3243 -9100.0249 -7400.3247 291.3243 -638.3641 -552.3023 30784.3047 -638.3641 -552.3023
ENERGY: 300000 2.6131 9.2256 3.9373 0.0000 -10607.9592 1457.9789 0.0000 0.0000 1730.3891 -7403.8152 296.5843 -9134.2043 -7430.0086 293.8621 228.8279 275.2868 29943.7123 221.6519 302.6692
ENERGY: 600000 0.9262 9.7394 2.5395 0.0000 -10589.6881 1372.8268 0.0000 0.0000 1739.2322 -7464.4240 298.0999 -9203.6562 -7417.9859 296.9557 -673.9890 -573.5346 30246.9438 85.6701 175.0701
ENERGY: 900000 3.0305 9.7842 2.8869 0.0000 -10623.1942 1462.6854 0.0000 0.0000 1738.4996 -7406.3075 297.9744 -9144.8071 -7414.2135 297.4574 335.4566 385.7422 29831.1779 102.4495 184.9439
ENERGY: 1200000 2.0322 10.3684 5.3656 0.0000 -10549.4012 1370.2179 0.0000 0.0000 1752.8885 -7408.5286 300.4406 -9161.4172 -7414.9117 298.6283 -370.0015 -329.2607 30080.5728 118.5933 186.9359
ENERGY: 1500000 4.8012 10.3954 3.5119 0.0000 -10631.6375 1455.3719 0.0000 0.0000 1734.6995 -7422.8576 297.3231 -9157.5571 -7411.8017 298.5394 -1.9153 107.6838 29876.0157 105.0680 173.6811
TCL: Running FEP window   5: Lambda1 0.2    Lambda2 0.25   [dLambda 0.04999999999999999]
TCL: Setting parameter firsttimestep to 0
TCL: Setting parameter alchLambda to 0.2
Info: NONBONDED TABLE R-SQUARED SPACING: 0.0625
Info: NONBONDED TABLE SIZE: 705 POINTS
TCL: Setting parameter alchLambda2 to 0.25
Info: NONBONDED TABLE R-SQUARED SPACING: 0.0625
Info: NONBONDED TABLE SIZE: 705 POINTS
TCL: Running for 1500000 steps
ETITLE: TS BOND ANGLE DIHED IMPRP ELECT VDW BOUNDARY MISC KINETIC TOTAL TEMP POTENTIAL TOTALAVG TEMPAVG PRESSURE GPRESSURE VOLUME PRESSAVG GPRESSAVG
ENERGY: 0 4.8012 10.3954 3.5119 0.0000 -10631.6376 1455.3378 0.0000 0.0000 1733.8114 -7423.7799 297.1708 -9157.5913 -7423.7799 297.1708 29.5517 113.7416 29876.0157 29.5517 113.7416
ENERGY: 300000 1.1201 9.4048 3.4189 0.0000 -10616.4685 1462.9884 0.0000 0.0000 1748.8639 -7390.6724 299.7508 -9139.5364 -7437.6552 296.8336 117.8746 200.9941 29925.7670 -149.1368 -56.4289
ENERGY: 600000 2.1415 11.0334 4.1233 0.0000 -10494.4171 1350.7538 0.0000 0.0000 1764.4918 -7361.8734 302.4294 -9126.3651 -7406.2895 297.9160 -694.6431 -608.6549 30076.3106 -389.8715 -315.2766
ENERGY: 900000 3.5966 13.9202 2.8614 0.0000 -10721.3814 1520.6952 0.0000 0.0000 1742.4414 -7437.8665 298.6500 -9180.3079 -7412.1170 297.9482 499.8204 577.8924 29954.4673 -176.1328 -102.6145
ENERGY: 1200000 0.1573 12.9993 4.5252 0.0000 -10630.7483 1393.1684 0.0000 0.0000 1789.5220 -7430.3762 306.7195 -9219.8982 -7409.7469 299.4398 -162.6546 -146.4905 29736.7457 -133.9421 -73.8044
ENERGY: 1500000 3.0742 14.6378 5.2162 0.0000 -10642.6490 1426.4147 0.0000 0.0000 1721.8523 -7471.4538 295.1211 -9193.3061 -7404.4921 300.2315 55.8199 143.9982 29468.0197 -109.2424 -49.9710
TCL: Running FEP window   6: Lambda1 0.25   Lambda2 0.3    [dLambda 0.04999999999999999]
TCL: Setting parameter firsttimestep to 0
TCL: Setting parameter alchLambda to 0.25
Info: NONBONDED TABLE R-SQUARED SPACING: 0.0625
Info: NONBONDED TABLE SIZE: 705 POINTS
TCL: Setting parameter alchLambda2 to 0.3
Info: NONBONDED TABLE R-SQUARED SPACING: 0.0625
Info: NONBONDED TABLE SIZE: 705 POINTS
TCL: Running for 1500000 steps
ETITLE: TS BOND ANGLE DIHED IMPRP ELECT VDW BOUNDARY MISC KINETIC TOTAL TEMP POTENTIAL TOTALAVG TEMPAVG PRESSURE GPRESSURE VOLUME PRESSAVG GPRESSAVG
ENERGY: 0 3.0742 14.6378 5.2162 0.0000 -10642.6492 1427.2631 0.0000 0.0000 1720.9691 -7471.4888 294.9697 -9192.4579 -7471.4888 294.9697 75.3787 154.7241 29468.0197 75.3787 154.7241
ENERGY: 300000 2.7122 7.9431 3.6046 0.0000 -10579.7141 1420.2013 0.0000 0.0000 1719.3339 -7425.9190 294.6894 -9145.2529 -7411.9719 297.0181 -21.2536 18.9199 29858.1693 -178.8303 -136.2309
ENERGY: 600000 1.4212 8.5083 3.9849 0.0000 -10616.2036 1426.4502 0.0000 0.0000 1762.7430 -7413.0960 302.1296 -9175.8391 -7407.5024 300.6951 123.6515 192.4486 29885.0678 35.5441 94.5048
ENERGY: 900000 1.6359 11.7845 3.5217 0.0000 -10644.1880 1413.0407 0.0000 0.0000 1776.9699 -7437.2353 304.5681 -9214.2052 -7395.5751 301.3751 34.3433 131.2574 29652.3319 -26.2599 41.7216
ENERGY: 1200000 1.4367 8.8983 5.9175 0.0000 -10538.2185 1394.0405 0.0000 0.0000 1769.8290 -7358.0965 303.3442 -9127.9255 -7390.0204 302.1592 -66.0930 -50.0297 30154.3661 -11.7169 54.6067
ENERGY: 1500000 2.2592 11.8179 3.3925 0.0000 -10483.8517 1366.0928 0.0000 0.0000 1740.9734 -7359.3159 298.3984 -9100.2893 -7395.4991 301.3396 -417.3476 -318.0131 30261.7211 -60.9322 8.1077
TCL: Running FEP window   7: Lambda1 0.3    Lambda2 0.35   [dLambda 0.04999999999999999]
TCL: Setting parameter firsttimestep to 0
TCL: Setting parameter alchLambda to 0.3
Info: NONBONDED TABLE R-SQUARED SPACING: 0.0625
Info: NONBONDED TABLE SIZE: 705 POINTS
TCL: Setting parameter alchLambda2 to 0.35
Info: NONBONDED TABLE R-SQUARED SPACING: 0.0625
Info: NONBONDED TABLE SIZE: 705 POINTS
TCL: Running for 1500000 steps
ETITLE: TS BOND ANGLE DIHED IMPRP ELECT VDW BOUNDARY MISC KINETIC TOTAL TEMP POTENTIAL TOTALAVG TEMPAVG PRESSURE GPRESSURE VOLUME PRESSAVG GPRESSAVG
ENERGY: 0 2.2592 11.8179 3.3925 0.0000 -10483.8518 1366.8250 0.0000 0.0000 1740.0913 -7359.4659 298.2472 -9099.5572 -7359.4659 298.2472 -406.3673 -307.6807 30261.7211 -406.3673 -307.6807
ENERGY: 300000 0.9445 8.7141 3.8350 0.0000 -10598.3409 1448.8040 0.0000 0.0000 1870.1066 -7265.9366 320.5315 -9136.0432 -7371.8553 304.2703 417.9964 453.5070 29891.4101 -27.0296 35.6200
ENERGY: 600000 3.9254 8.0295 5.7928 0.0000 -10681.0768 1429.5310 0.0000 0.0000 1784.7682 -7449.0300 305.9047 -9233.7982 -7386.0017 303.1711 -374.9705 -286.5590 30077.4455 73.3811 141.3320
ENERGY: 900000 3.2846 9.1878 4.2846 0.0000 -10577.1335 1479.8815 0.0000 0.0000 1776.2394 -7304.2557 304.4429 -9080.4951 -7385.9737 302.2483 506.6011 543.5416 30127.6592 73.8387 135.9199
ENERGY: 1200000 2.9289 7.5755 5.6343 0.0000 -10573.4699 1456.1299 0.0000 0.0000 1766.9589 -7334.2424 302.8522 -9101.2013 -7388.0317 301.3031 424.6762 495.8035 30345.2396 160.1094 225.8164
ENERGY: 1500000 2.3262 7.6779 5.3962 0.0000 -10642.0639 1471.7015 0.0000 0.0000 1784.9996 -7369.9625 305.9444 -9154.9621 -7389.0502 300.9579 -24.4362 8.3739 30790.4565 152.3962 221.3056
TCL: Running FEP window   8: Lambda1 0.35   Lambda2 0.39999999999999997 [dLambda 0.04999999999999999]
TCL: Setting parameter firsttimestep to 0
TCL: Setting parameter alchLambda to 0.35
Info: NONBONDED TABLE R-SQUARED SPACING: 0.0625
Info: NONBONDED TABLE SIZE: 705 POINTS
TCL: Setting parameter alchLambda2 to 0.39999999999999997
Info: NONBONDED TABLE R-SQUARED SPACING: 0.0625
Info: NONBONDED TABLE SIZE: 705 POINTS
TCL: Running for 1500000 steps
ETITLE: TS BOND ANGLE DIHED IMPRP ELECT VDW BOUNDARY MISC KINETIC TOTAL TEMP POTENTIAL TOTALAVG TEMPAVG PRESSURE GPRESSURE VOLUME PRESSAVG GPRESSAVG
ENERGY: 0 2.3263 7.6779 5.3962 0.0000 -10642.0635 1472.5946 0.0000 0.0000 1784.1242 -7369.9444 305.7943 -9154.0686 -7369.9444 305.7943 -52.1023 19.5512 30790.4565 -52.1023 19.5512
ENERGY: 300000 3.0786 13.5009 3.8212 0.0000 -10482.8147 1388.8983 0.0000 0.0000 1724.6164 -7348.8993 295.5948 -9073.5157 -7385.7271 301.2434 11.8593 48.9713 29808.8935 44.7852 107.2317
ENERGY: 600000 1.0423 8.8272 3.4191 0.0000 -10629.4960 1446.9358 0.0000 0.0000 1720.4956 -7448.7760 294.8885 -9169.2716 -7398.6153 300.1075 116.6273 148.0363 30123.7584 -25.5646 28.3003
ENERGY: 900000 3.2322 16.5655 2.7840 0.0000 -10609.6393 1441.9456 0.0000 0.0000 1733.7899 -7411.3220 297.1672 -9145.1119 -7415.3166 298.7716 85.6505 143.9429 29907.4905 -89.0159 -29.4340
ENERGY: 1200000 0.6251 7.8866 4.1472 0.0000 -10621.0241 1428.5362 0.0000 0.0000 1855.1833 -7324.6458 317.9737 -9179.8291 -7408.1969 301.4442 -79.0628 -50.5656 30527.3154 -174.4440 -113.4316
ENERGY: 1500000 1.5712 10.7421 1.9333 0.0000 -10533.5237 1411.3348 0.0000 0.0000 1795.3605 -7312.5819 307.7202 -9107.9423 -7403.2488 301.3475 -318.0379 -210.9274 30762.8079 -260.0224 -196.3598
TCL: Running FEP window   9: Lambda1 0.39999999999999997 Lambda2 0.44999999999999996 [dLambda 0.04999999999999999]
TCL: Setting parameter firsttimestep to 0
TCL: Setting parameter alchLambda to 0.39999999999999997
Info: NONBONDED TABLE R-SQUARED SPACING: 0.0625
Info: NONBONDED TABLE SIZE: 705 POINTS
TCL: Setting parameter alchLambda2 to 0.44999999999999996
Info: NONBONDED TABLE R-SQUARED SPACING: 0.0625
Info: NONBONDED TABLE SIZE: 705 POINTS
TCL: Running for 1500000 steps
ETITLE: TS BOND ANGLE DIHED IMPRP ELECT VDW BOUNDARY MISC KINETIC TOTAL TEMP POTENTIAL TOTALAVG TEMPAVG PRESSURE GPRESSURE VOLUME PRESSAVG GPRESSAVG
ENERGY: 0 1.5712 10.7421 1.9333 0.0000 -10533.5221 1412.0594 0.0000 0.0000 1794.5163 -7312.6999 307.5755 -9107.2162 -7312.6999 307.5755 -277.9787 -198.5980 30762.8079 -277.9787 -198.5980
ENERGY: 300000 0.9630 11.7531 4.3809 0.0000 -10746.2272 1514.2926 0.0000 0.0000 1770.3700 -7444.4677 303.4369 -9214.8377 -7354.0036 303.0537 700.5598 683.7597 29903.4555 88.5471 132.5043
ENERGY: 600000 0.3196 13.7626 3.3837 0.0000 -10571.3525 1430.6801 0.0000 0.0000 1734.4096 -7388.7970 297.2734 -9123.2065 -7376.6928 301.8229 -18.2533 76.2777 30328.8125 76.8588 130.2388
ENERGY: 900000 0.4538 9.0708 3.6246 0.0000 -10630.8855 1456.9932 0.0000 0.0000 1743.7911 -7416.9521 298.8813 -9160.7432 -7392.6684 300.0580 120.4087 169.0677 30212.9753 70.9043 128.4976
ENERGY: 1200000 1.9943 14.6447 3.6854 0.0000 -10600.2220 1445.2018 0.0000 0.0000 1729.8410 -7404.8549 296.4903 -9134.6959 -7399.8724 299.0612 -17.0232 93.0278 30362.0459 50.9008 109.0387
ENERGY: 1500000 0.7436 11.5726 2.5100 0.0000 -10554.2446 1435.9548 0.0000 0.0000 1745.7307 -7357.7328 299.2138 -9103.4635 -7394.6312 299.0076 350.6928 447.0492 29745.8228 117.5237 177.8235
TCL: Running FEP window  10: Lambda1 0.44999999999999996 Lambda2 0.49999999999999994 [dLambda 0.04999999999999999]
TCL: Setting parameter firsttimestep to 0
TCL: Setting parameter alchLambda to 0.44999999999999996
Info: NONBONDED TABLE R-SQUARED SPACING: 0.0625
Info: NONBONDED TABLE SIZE: 705 POINTS
TCL: Setting parameter alchLambda2 to 0.49999999999999994
Info: NONBONDED TABLE R-SQUARED SPACING: 0.0625
Info: NONBONDED TABLE SIZE: 705 POINTS
TCL: Running for 1500000 steps
ETITLE: TS BOND ANGLE DIHED IMPRP ELECT VDW BOUNDARY MISC KINETIC TOTAL TEMP POTENTIAL TOTALAVG TEMPAVG PRESSURE GPRESSURE VOLUME PRESSAVG GPRESSAVG
ENERGY: 0 0.7436 11.5726 2.5100 0.0000 -10554.2452 1436.2694 0.0000 0.0000 1744.8444 -7358.3052 299.0619 -9103.1496 -7358.3052 299.0619 380.7636 458.2151 29745.8228 380.7636 458.2151
ENERGY: 300000 5.7923 8.0782 4.3976 0.0000 -10629.0632 1456.7343 0.0000 0.0000 1720.8478 -7433.2129 294.9489 -9154.0607 -7388.6110 299.5940 292.2610 358.2147 29636.3287 32.5610 101.9146
ENERGY: 600000 0.8060 11.9758 3.6899 0.0000 -10661.9065 1453.0996 0.0000 0.0000 1778.7607 -7413.5745 304.8750 -9192.3352 -7385.4744 302.4431 150.8400 195.4193 30045.3331 42.8329 99.6529
ENERGY: 900000 2.6452 13.3414 4.6652 0.0000 -10666.9395 1486.7385 0.0000 0.0000 1764.4258 -7395.1233 302.4181 -9159.5491 -7402.2311 301.9834 956.4165 996.9333 29624.4665 102.1701 156.0013
ENERGY: 1200000 1.5029 12.4315 4.2677 0.0000 -10580.0542 1383.2996 0.0000 0.0000 1725.1595 -7453.3930 295.6879 -9178.5525 -7405.5574 300.6264 -393.9463 -374.4149 29890.3916 57.8402 112.1941
ENERGY: 1500000 1.0931 7.9741 3.8791 0.0000 -10517.7742 1396.0742 0.0000 0.0000 1755.1070 -7353.6468 300.8208 -9108.7538 -7403.8649 300.0828 -34.0450 31.7220 30006.2773 140.0055 198.6265
TCL: Running FEP window  11: Lambda1 0.49999999999999994 Lambda2 0.5499999999999999 [dLambda 0.04999999999999999]
TCL: Setting parameter firsttimestep to 0
TCL: Setting parameter alchLambda to 0.49999999999999994
Info: NONBONDED TABLE R-SQUARED SPACING: 0.0625
Info: NONBONDED TABLE SIZE: 705 POINTS
TCL: Setting parameter alchLambda2 to 0.5499999999999999
Info: NONBONDED TABLE R-SQUARED SPACING: 0.0625
Info: NONBONDED TABLE SIZE: 705 POINTS
TCL: Running for 1500000 steps
ETITLE: TS BOND ANGLE DIHED IMPRP ELECT VDW BOUNDARY MISC KINETIC TOTAL TEMP POTENTIAL TOTALAVG TEMPAVG PRESSURE GPRESSURE VOLUME PRESSAVG GPRESSAVG
ENERGY: 0 1.0931 7.9741 3.8791 0.0000 -10517.7739 1395.5464 0.0000 0.0000 1754.2537 -7355.0276 300.6746 -9109.2813 -7355.0276 300.6746 -48.6705 34.8288 30006.2773 -48.6705 34.8288
ENERGY: 300000 1.3627 8.2726 3.8346 0.0000 -10659.6379 1484.4139 0.0000 0.0000 1744.6665 -7417.0877 299.0314 -9161.7542 -7393.6893 299.2866 359.7966 457.5692 30146.4540 269.6193 367.0974
ENERGY: 600000 3.5650 9.0041 3.5660 0.0000 -10678.3037 1491.6738 0.0000 0.0000 1704.0962 -7466.3986 292.0777 -9170.4948 -7411.6494 298.2324 377.1929 391.5712 30287.1660 276.0709 349.7136
ENERGY: 900000 1.8997 11.3060 5.1305 0.0000 -10581.3380 1379.9345 0.0000 0.0000 1775.1275 -7407.9397 304.2523 -9183.0672 -7414.9648 298.5086 -338.1351 -310.6101 30190.3752 56.2480 133.5106
ENERGY: 1200000 2.6651 11.2491 2.3293 0.0000 -10578.5228 1390.1182 0.0000 0.0000 1750.7583 -7421.4028 300.0755 -9172.1611 -7418.5767 298.6512 -414.3761 -368.8870 30098.3574 59.1738 128.0599
ENERGY: 1500000 3.5843 7.0670 4.8807 0.0000 -10608.6929 1439.4262 0.0000 0.0000 1761.8986 -7391.8360 301.9849 -9153.7346 -7420.3261 298.8833 69.7877 154.3802 30250.0982 82.2414 157.8513
TCL: Running FEP window  12: Lambda1 0.5499999999999999 Lambda2 0.6    [dLambda 0.050000000000000044]
TCL: Setting parameter firsttimestep to 0
TCL: Setting parameter alchLambda to 0.5499999999999999
Info: NONBONDED TABLE R-SQUARED SPACING: 0.0625
Info: NONBONDED TABLE SIZE: 705 POINTS
TCL: Setting parameter alchLambda2 to 0.6
Info: NONBONDED TABLE R-SQUARED SPACING: 0.0625
Info: NONBONDED TABLE SIZE: 705 POINTS
TCL: Running for 1500000 steps
ETITLE: TS BOND ANGLE DIHED IMPRP ELECT VDW BOUNDARY MISC KINETIC TOTAL TEMP POTENTIAL TOTALAVG TEMPAVG PRESSURE GPRESSURE VOLUME PRESSAVG GPRESSAVG
ENERGY: 0 3.5843 7.0670 4.8807 0.0000 -10608.6235 1441.0569 0.0000 0.0000 1761.0633 -7390.9712 301.8417 -9152.0345 -7390.9712 301.8417 94.4717 180.5358 30250.0982 94.4717 180.5358
ENERGY: 300000 1.2005 5.1682 2.1162 0.0000 -10467.5579 1318.4242 0.0000 0.0000 1762.8063 -7377.8424 302.1405 -9140.6487 -7382.2094 304.1536 -1071.2836 -1057.0430 30717.8863 -277.2778 -234.7162
ENERGY: 600000 2.0565 5.9869 3.6934 0.0000 -10711.8169 1438.4874 0.0000 0.0000 1693.6351 -7567.9575 290.2847 -9261.5927 -7410.6662 299.8381 109.6281 207.7417 29744.4197 -198.6178 -133.2740
ENERGY: 900000 1.7568 6.3903 3.8163 0.0000 -10488.9334 1402.8662 0.0000 0.0000 1769.2416 -7304.8622 303.2435 -9074.1038 -7405.3094 299.7375 214.5806 288.4549 30191.6339 -114.3807 -44.8307
ENERGY: 1200000 5.4390 6.7580 4.1061 0.0000 -10464.2291 1320.2327 0.0000 0.0000 1716.2647 -7411.4287 294.1634 -9127.6934 -7400.6479 299.8599 -1270.7420 -1151.8351 30967.3702 -245.6872 -170.2724
ENERGY: 1500000 1.6233 11.7053 5.0393 0.0000 -10621.4145 1409.7901 0.0000 0.0000 1735.7304 -7457.5262 297.4998 -9193.2566 -7405.3187 299.8984 32.8709 89.6032 29934.4581 -215.6020 -140.9916
TCL: Running FEP window  13: Lambda1 0.6    Lambda2 0.65   [dLambda 0.050000000000000044]
TCL: Setting parameter firsttimestep to 0
TCL: Setting parameter alchLambda to 0.6
Info: NONBONDED TABLE R-SQUARED SPACING: 0.0625
Info: NONBONDED TABLE SIZE: 705 POINTS
TCL: Setting parameter alchLambda2 to 0.65
Info: NONBONDED TABLE R-SQUARED SPACING: 0.0625
Info: NONBONDED TABLE SIZE: 705 POINTS
TCL: Running for 1500000 steps
ETITLE: TS BOND ANGLE DIHED IMPRP ELECT VDW BOUNDARY MISC KINETIC TOTAL TEMP POTENTIAL TOTALAVG TEMPAVG PRESSURE GPRESSURE VOLUME PRESSAVG GPRESSAVG
ENERGY: 0 1.6233 11.7053 5.0393 0.0000 -10621.6171 1409.3755 0.0000 0.0000 1734.8324 -7459.0414 297.3458 -9193.8738 -7459.0414 297.3458 16.1165 96.2181 29934.4581 16.1165 96.2181
ENERGY: 300000 2.4528 10.3943 5.5237 0.0000 -10690.4621 1434.0499 0.0000 0.0000 1780.4195 -7457.6218 305.1593 -9238.0413 -7400.5159 304.2283 -332.7246 -281.2918 30275.0063 45.1066 93.5321
ENERGY: 600000 3.5797 8.1662 3.3866 0.0000 -10472.0018 1354.9471 0.0000 0.0000 1756.8366 -7345.0857 301.1173 -9101.9222 -7380.7563 303.9841 -119.6034 -96.9386 29885.7291 84.0113 138.4968
ENERGY: 900000 1.1802 11.4916 4.1880 0.0000 -10721.3863 1473.2394 0.0000 0.0000 1781.4778 -7449.8092 305.3407 -9231.2870 -7386.6530 303.3633 360.4429 387.7614 29785.3143 125.2822 179.1831
ENERGY: 1200000 5.4128 9.4150 4.7068 0.0000 -10515.2308 1380.1034 0.0000 0.0000 1755.5537 -7360.0392 300.8974 -9115.5928 -7388.3393 303.0057 -261.7132 -238.0044 30188.7013 56.1879 111.7585
ENERGY: 1500000 2.8193 12.5186 3.1011 0.0000 -10526.6961 1406.4796 0.0000 0.0000 1770.4810 -7331.2965 303.4559 -9101.7775 -7386.2287 303.3138 -13.6645 63.2812 30171.3131 49.0622 101.1020
TCL: Running FEP window  14: Lambda1 0.65   Lambda2 0.7000000000000001 [dLambda 0.050000000000000044]
TCL: Setting parameter firsttimestep to 0
TCL: Setting parameter alchLambda to 0.65
Info: NONBONDED TABLE R-SQUARED SPACING: 0.0625
Info: NONBONDED TABLE SIZE: 705 POINTS
TCL: Setting parameter alchLambda2 to 0.7000000000000001
Info: NONBONDED TABLE R-SQUARED SPACING: 0.0625
Info: NONBONDED TABLE SIZE: 705 POINTS
TCL: Running for 1500000 steps
ETITLE: TS BOND ANGLE DIHED IMPRP ELECT VDW BOUNDARY MISC KINETIC TOTAL TEMP POTENTIAL TOTALAVG TEMPAVG PRESSURE GPRESSURE VOLUME PRESSAVG GPRESSAVG
ENERGY: 0 2.8193 12.5186 3.1011 0.0000 -10527.0347 1406.8453 0.0000 0.0000 1769.6442 -7332.1062 303.3125 -9101.7503 -7332.1062 303.3125 -2.5396 79.2984 30171.3131 -2.5396 79.2984
ENERGY: 300000 2.1661 10.5721 4.6725 0.0000 -10510.8620 1397.6654 0.0000 0.0000 1775.3304 -7320.4555 304.2871 -9095.7859 -7342.2976 302.8002 -189.3838 -68.4532 30342.3101 161.5161 247.2076
ENERGY: 600000 3.8379 8.0875 4.4256 0.0000 -10494.7560 1347.3292 0.0000 0.0000 1697.2040 -7433.8718 290.8964 -9131.0758 -7378.6069 299.4591 -285.9510 -275.6984 29964.6833 -58.9890 16.4182
ENERGY: 900000 0.7193 10.1039 4.8100 0.0000 -10550.3432 1413.7257 0.0000 0.0000 1732.8006 -7388.1837 296.9976 -9120.9843 -7381.3732 298.5769 259.7084 359.9119 29650.0980 -57.3202 16.4295
ENERGY: 1200000 0.8904 12.5756 3.3934 0.0000 -10418.3137 1328.3038 0.0000 0.0000 1709.5784 -7363.5721 293.0174 -9073.1505 -7382.0444 299.5555 -654.1315 -531.6188 30172.4668 -160.5417 -82.8012
ENERGY: 1500000 2.0378 12.7432 4.0191 0.0000 -10418.0252 1304.8870 0.0000 0.0000 1742.1617 -7352.1764 298.6021 -9094.3381 -7385.0990 299.1191 -891.3075 -836.9783 30596.4139 -122.9754 -49.3678
TCL: Running FEP window  15: Lambda1 0.7000000000000001 Lambda2 0.7500000000000001 [dLambda 0.050000000000000044]
TCL: Setting parameter firsttimestep to 0
TCL: Setting parameter alchLambda to 0.7000000000000001
Info: NONBONDED TABLE R-SQUARED SPACING: 0.0625
Info: NONBONDED TABLE SIZE: 705 POINTS
TCL: Setting parameter alchLambda2 to 0.7500000000000001
Info: NONBONDED TABLE R-SQUARED SPACING: 0.0625
Info: NONBONDED TABLE SIZE: 705 POINTS
TCL: Running for 1500000 steps
ETITLE: TS BOND ANGLE DIHED IMPRP ELECT VDW BOUNDARY MISC KINETIC TOTAL TEMP POTENTIAL TOTALAVG TEMPAVG PRESSURE GPRESSURE VOLUME PRESSAVG GPRESSAVG
ENERGY: 0 2.0378 12.7432 4.0191 0.0000 -10418.5327 1304.4079 0.0000 0.0000 1741.3160 -7354.0086 298.4571 -9095.3247 -7354.0086 298.4571 -904.9257 -834.1764 30596.4139 -904.9257 -834.1764
ENERGY: 300000 2.9623 6.2721 3.4886 0.0000 -10506.4504 1393.6175 0.0000 0.0000 1797.9282 -7302.1816 308.1603 -9100.1098 -7378.9792 302.0651 -244.7527 -240.1531 30474.7290 -324.7662 -274.6176
ENERGY: 600000 3.2849 11.3079 3.7622 0.0000 -10425.4909 1407.7239 0.0000 0.0000 1733.0443 -7266.3675 297.0394 -8999.4118 -7370.1544 301.0587 284.0895 334.0387 30252.5948 -43.2247 4.3788
ENERGY: 900000 4.7634 11.3471 6.2817 0.0000 -10773.4229 1529.1895 0.0000 0.0000 1790.0452 -7431.7960 306.8092 -9221.8412 -7388.9666 300.6582 951.3920 975.2565 29666.3202 14.9087 60.8914
ENERGY: 1200000 6.9411 8.5728 3.3176 0.0000 -10529.3572 1414.6126 0.0000 0.0000 1719.0850 -7376.8282 294.6468 -9095.9131 -7402.8540 299.2438 -249.9502 -88.3522 30235.6021 2.4164 66.7753
ENERGY: 1500000 2.6502 8.5540 3.6699 0.0000 -10644.9031 1402.2467 0.0000 0.0000 1767.9568 -7459.8256 303.0233 -9227.7824 -7411.6087 299.5313 -443.8951 -340.1169 30409.7556 -68.4967 -6.1151
TCL: Running FEP window  16: Lambda1 0.7500000000000001 Lambda2 0.8000000000000002 [dLambda 0.050000000000000044]
TCL: Setting parameter firsttimestep to 0
TCL: Setting parameter alchLambda to 0.7500000000000001
Info: NONBONDED TABLE R-SQUARED SPACING: 0.0625
Info: NONBONDED TABLE SIZE: 705 POINTS
TCL: Setting parameter alchLambda2 to 0.8000000000000002
Info: NONBONDED TABLE R-SQUARED SPACING: 0.0625
Info: NONBONDED TABLE SIZE: 705 POINTS
TCL: Running for 1500000 steps
ETITLE: TS BOND ANGLE DIHED IMPRP ELECT VDW BOUNDARY MISC KINETIC TOTAL TEMP POTENTIAL TOTALAVG TEMPAVG PRESSURE GPRESSURE VOLUME PRESSAVG GPRESSAVG
ENERGY: 0 2.6502 8.5540 3.6699 0.0000 -10645.4531 1401.8761 0.0000 0.0000 1767.0841 -7461.6190 302.8737 -9228.7031 -7461.6190 302.8737 -428.2386 -339.5997 30409.7556 -428.2386 -339.5997
ENERGY: 300000 1.7673 6.4599 4.0504 0.0000 -10496.2401 1307.6011 0.0000 0.0000 1807.3853 -7368.9761 309.7812 -9176.3614 -7426.9917 299.7070 -1092.2763 -1000.8725 30449.6536 -300.5608 -241.7082
ENERGY: 600000 3.9155 10.3451 2.6081 0.0000 -10592.9844 1372.9973 0.0000 0.0000 1792.2967 -7410.8218 307.1951 -9203.1185 -7421.5595 299.5254 -359.7199 -352.7135 30107.4549 -526.9200 -468.9151
ENERGY: 900000 1.2931 9.1985 3.5623 0.0000 -10563.5165 1412.2558 0.0000 0.0000 1743.9722 -7393.2345 298.9124 -9137.2067 -7409.4902 298.8292 97.3232 133.0230 29939.2704 -328.2391 -268.2507
ENERGY: 1200000 1.5323 8.9193 3.8058 0.0000 -10579.1425 1420.2395 0.0000 0.0000 1804.1979 -7340.4478 309.2349 -9144.6457 -7403.5866 299.4300 22.5441 129.0388 30113.3194 -274.8422 -218.6479
ENERGY: 1500000 1.9291 9.7581 4.1551 0.0000 -10556.9423 1349.0729 0.0000 0.0000 1774.1350 -7417.8921 304.0822 -9192.0271 -7400.0164 299.4676 -728.8954 -683.8873 30357.2901 -298.4968 -250.7674
TCL: Running FEP window  17: Lambda1 0.8000000000000002 Lambda2 0.8500000000000002 [dLambda 0.050000000000000044]
TCL: Setting parameter firsttimestep to 0
TCL: Setting parameter alchLambda to 0.8000000000000002
Info: NONBONDED TABLE R-SQUARED SPACING: 0.0625
Info: NONBONDED TABLE SIZE: 705 POINTS
TCL: Setting parameter alchLambda2 to 0.8500000000000002
Info: NONBONDED TABLE R-SQUARED SPACING: 0.0625
Info: NONBONDED TABLE SIZE: 705 POINTS
TCL: Running for 1500000 steps
ETITLE: TS BOND ANGLE DIHED IMPRP ELECT VDW BOUNDARY MISC KINETIC TOTAL TEMP POTENTIAL TOTALAVG TEMPAVG PRESSURE GPRESSURE VOLUME PRESSAVG GPRESSAVG
ENERGY: 0 1.9291 9.7581 4.1551 0.0000 -10557.4147 1348.9432 0.0000 0.0000 1773.2706 -7419.3586 303.9340 -9192.6291 -7419.3586 303.9340 -756.2221 -673.4163 30357.2901 -756.2221 -673.4163
ENERGY: 300000 0.8827 19.3034 5.3460 0.0000 -10528.4227 1397.1324 0.0000 0.0000 1718.7887 -7386.9694 294.5960 -9105.7581 -7424.6085 297.5930 -182.9942 -138.5421 30342.0137 -399.7756 -329.4746
ENERGY: 600000 3.8827 4.6106 2.3699 0.0000 -10617.6611 1409.2033 0.0000 0.0000 1712.8859 -7484.7088 293.5843 -9197.5947 -7428.6676 298.4532 -283.3822 -175.8583 30216.2925 -349.8184 -269.2417
ENERGY: 900000 1.6823 16.6857 5.0613 0.0000 -10511.0154 1423.3443 0.0000 0.0000 1739.6965 -7324.5453 298.1795 -9064.2418 -7420.2630 299.2607 317.0546 323.1860 30262.7931 -315.9133 -259.5354
ENERGY: 1200000 8.6177 11.1273 3.2335 0.0000 -10773.8824 1534.4608 0.0000 0.0000 1721.7617 -7494.6813 295.1056 -9216.4430 -7414.5146 299.1902 688.3336 769.9999 30064.3141 -206.5893 -147.4625
ENERGY: 1500000 0.4204 5.8919 5.5421 0.0000 -10606.2666 1449.9185 0.0000 0.0000 1781.8026 -7362.6911 305.3964 -9144.4937 -7409.4273 300.1587 133.8564 193.8406 30340.5493 -138.8678 -82.6747
TCL: Running FEP window  18: Lambda1 0.8500000000000002 Lambda2 0.9000000000000002 [dLambda 0.050000000000000044]
TCL: Setting parameter firsttimestep to 0
TCL: Setting parameter alchLambda to 0.8500000000000002
Info: NONBONDED TABLE R-SQUARED SPACING: 0.0625
Info: NONBONDED TABLE SIZE: 705 POINTS
TCL: Setting parameter alchLambda2 to 0.9000000000000002
Info: NONBONDED TABLE R-SQUARED SPACING: 0.0625
Info: NONBONDED TABLE SIZE: 705 POINTS
TCL: Running for 1500000 steps
ETITLE: TS BOND ANGLE DIHED IMPRP ELECT VDW BOUNDARY MISC KINETIC TOTAL TEMP POTENTIAL TOTALAVG TEMPAVG PRESSURE GPRESSURE VOLUME PRESSAVG GPRESSAVG
ENERGY: 0 0.4204 5.8919 5.5421 0.0000 -10607.1181 1450.7064 0.0000 0.0000 1780.9049 -7363.6523 305.2425 -9144.5573 -7363.6523 305.2425 131.2393 217.8981 30340.5493 131.2393 217.8981
ENERGY: 300000 1.3835 9.5396 3.7607 0.0000 -10619.5752 1451.6022 0.0000 0.0000 1768.7463 -7384.5429 303.1586 -9153.2891 -7377.4112 303.5205 167.5074 220.8719 30247.4549 297.4683 379.7259
ENERGY: 600000 1.7767 11.2000 5.0491 0.0000 -10539.3327 1312.8482 0.0000 0.0000 1819.7705 -7388.6881 311.9040 -9208.4587 -7383.1152 304.0613 -887.6545 -792.3184 30453.6650 224.6214 290.3070
ENERGY: 900000 1.3027 9.4432 3.8354 0.0000 -10659.4216 1418.8434 0.0000 0.0000 1747.0716 -7478.9254 299.4436 -9225.9969 -7398.2549 302.9105 -201.4883 -219.3670 30249.9911 182.3657 230.7407
ENERGY: 1200000 0.5034 8.2406 4.1417 0.0000 -10526.8727 1411.1586 0.0000 0.0000 1739.8266 -7363.0018 298.2018 -9102.8285 -7397.9686 302.7197 276.0249 315.0207 30288.5591 185.8839 248.6729
ENERGY: 1500000 4.4212 12.3168 4.9390 0.0000 -10658.9566 1422.4227 0.0000 0.0000 1773.1447 -7441.7121 303.9125 -9214.8568 -7406.2414 302.9559 -162.2578 -34.3328 30140.6770 99.2922 164.5534
TCL: Running FEP window  19: Lambda1 0.9000000000000002 Lambda2 0.9500000000000003 [dLambda 0.050000000000000044]
TCL: Setting parameter firsttimestep to 0
TCL: Setting parameter alchLambda to 0.9000000000000002
Info: NONBONDED TABLE R-SQUARED SPACING: 0.0625
Info: NONBONDED TABLE SIZE: 705 POINTS
TCL: Setting parameter alchLambda2 to 0.9500000000000003
Info: NONBONDED TABLE R-SQUARED SPACING: 0.0625
Info: NONBONDED TABLE SIZE: 705 POINTS
TCL: Running for 1500000 steps
ETITLE: TS BOND ANGLE DIHED IMPRP ELECT VDW BOUNDARY MISC KINETIC TOTAL TEMP POTENTIAL TOTALAVG TEMPAVG PRESSURE GPRESSURE VOLUME PRESSAVG GPRESSAVG
ENERGY: 0 4.4212 12.3168 4.9390 0.0000 -10660.6089 1423.3061 0.0000 0.0000 1772.2556 -7443.3702 303.7601 -9215.6258 -7443.3702 303.7601 -82.9319 -12.6653 30140.6770 -82.9319 -12.6653
ENERGY: 300000 3.0265 13.8297 3.3642 0.0000 -10632.3447 1514.0319 0.0000 0.0000 1767.7230 -7330.3694 302.9832 -9098.0924 -7373.0016 304.4294 668.8277 755.8042 30363.3027 18.8257 80.9696
ENERGY: 600000 1.2942 5.5789 4.4838 0.0000 -10713.0938 1445.2952 0.0000 0.0000 1737.4605 -7518.9813 297.7963 -9256.4418 -7403.7712 302.6331 103.3367 176.7636 29832.4911 20.4973 83.2721
ENERGY: 900000 2.4790 12.9407 3.3865 0.0000 -10636.3337 1504.8699 0.0000 0.0000 1714.3222 -7398.3354 293.8304 -9112.6575 -7404.0189 302.2345 603.1447 651.2850 30223.8976 66.1739 122.0969
ENERGY: 1200000 3.4022 8.7382 4.6767 0.0000 -10440.7174 1328.7049 0.0000 0.0000 1752.9111 -7342.2842 300.4445 -9095.1953 -7406.2615 301.0890 -726.3585 -615.8454 30473.0404 80.0725 148.0494
ENERGY: 1500000 2.1197 7.4528 5.4826 0.0000 -10464.3574 1320.4534 0.0000 0.0000 1755.5221 -7373.3267 300.8920 -9128.8488 -7401.8252 301.0924 -582.8508 -562.2737 30307.4916 -26.0191 38.7508
TCL: Running FEP window  20: Lambda1 0.9500000000000003 Lambda2 1.0    [dLambda 0.04999999999999971]
TCL: Setting parameter firsttimestep to 0
TCL: Setting parameter alchLambda to 0.9500000000000003
Info: NONBONDED TABLE R-SQUARED SPACING: 0.0625
Info: NONBONDED TABLE SIZE: 705 POINTS
TCL: Setting parameter alchLambda2 to 1.0
Info: NONBONDED TABLE R-SQUARED SPACING: 0.0625
Info: NONBONDED TABLE SIZE: 705 POINTS
TCL: Running for 1500000 steps
ETITLE: TS BOND ANGLE DIHED IMPRP ELECT VDW BOUNDARY MISC KINETIC TOTAL TEMP POTENTIAL TOTALAVG TEMPAVG PRESSURE GPRESSURE VOLUME PRESSAVG GPRESSAVG
ENERGY: 0 2.1197 7.4528 5.4826 0.0000 -10465.5293 1322.1089 0.0000 0.0000 1754.6219 -7373.7433 300.7377 -9128.3652 -7373.7433 300.7377 -607.8308 -531.1860 30307.4916 -607.8308 -531.1860
ENERGY: 300000 1.1671 8.8459 4.9667 0.0000 -10438.5203 1317.6209 0.0000 0.0000 1716.2022 -7389.7174 294.1527 -9105.9196 -7386.0178 301.0467 -461.1708 -431.7253 29949.5953 -161.0555 -107.9762
ENERGY: 600000 0.5526 10.1686 2.4415 0.0000 -10523.1901 1387.5021 0.0000 0.0000 1727.8353 -7394.6901 296.1465 -9122.5254 -7387.5135 301.1564 -5.8812 84.1328 30141.0039 -84.5255 -25.7729
ENERGY: 900000 3.4033 9.2001 3.3040 0.0000 -10478.7844 1350.1952 0.0000 0.0000 1754.8217 -7357.8601 300.7720 -9112.6818 -7397.1757 300.6067 -298.7599 -370.0053 30257.0407 -42.6626 2.9332
ENERGY: 1200000 2.8679 10.0957 2.9310 0.0000 -10602.8919 1335.3851 0.0000 0.0000 1708.7097 -7542.9025 292.8685 -9251.6122 -7410.6381 300.1176 -558.9006 -536.2340 29708.0917 91.5790 146.6249
ENERGY: 1500000 3.9421 8.9313 4.3817 0.0000 -10512.9251 1313.1228 0.0000 0.0000 1774.5467 -7408.0005 304.1528 -9182.5473 -7413.3382 300.8639 -1284.9879 -1249.7670 30983.9100 -55.7867 -0.9689
TCL: Exiting due to exit command.
