Info: SIMULATION PARAMETERS:
Info: TIMESTEP               2
Info: NUMBER OF STEPS        0
Info: STEPS PER CYCLE        10
Info: PERIODIC CELL BASIS 1  30.7605 0 0
Info: PERIODIC CELL BASIS 2  0 31.6802 0
Info: PERIODIC CELL BASIS 3  0 0 31.4085
Info: PERIODIC CELL CENTER   0 0 0
Info: WRAPPING WATERS AROUND PERIODIC BOUNDARIES ON OUTPUT.
Info: WRAPPING ALL CLUSTERS AROUND PERIODIC BOUNDARIES ON OUTPUT.
Info: FIRST LDB TIMESTEP     50
Info: LAST LDB TIMESTEP     -1
Info: HOM BACKGROUND SCALING 1
Info: PME BACKGROUND SCALING 1
Info: MIN ATOMS PER PATCH    40
Info: EMPTY PATCH LOAD       40 ATOMS
Info: VELOCITY FILE          mobley_7326706_equil.vel
Info: CENTER OF MASS MOVING INITIALLY? NO
Info: DIELECTRIC             1
Info: EXCLUDE                SCALED ONE-FOUR
Info: 1-4 ELECTROSTATICS SCALED BY 0.833333
Info: MODIFIED 1-4 VDW PARAMETERS WILL BE USED
Info: DCD FILENAME           mobley_7326706_prod.dcd
Info: DCD FREQUENCY          100000
Info: DCD FIRST STEP         100000
Info: DCD FILE WILL CONTAIN UNIT CELL DATA
Info: XST FILENAME           mobley_7326706_prod.xst
Info: XST FREQUENCY          100000
Info: NO VELOCITY DCD OUTPUT
Info: NO FORCE DCD OUTPUT
Info: OUTPUT FILENAME        mobley_7326706_prod
Info: BINARY OUTPUT FILES WILL BE USED
Info: RESTART FILENAME       mobley_7326706_prod.restart
Info: RESTART FREQUENCY      100000
Info: BINARY RESTART FILES WILL BE USED
Info: CUTOFF                 9
Info: PAIRLIST DISTANCE      11
Info: PAIRLIST SHRINK RATE   0.01
Info: PAIRLIST GROW RATE     0.01
Info: PAIRLIST TRIGGER       0.3
Info: PAIRLISTS PER CYCLE    2
Info: PAIRLISTS ENABLED
Info: MARGIN                 2
Info: HYDROGEN GROUP CUTOFF  2.5
Info: PATCH DIMENSION        15.5
Info: ENERGY OUTPUT STEPS    100000
Info: ENERGY EVALUATION STEPS    100000
Info: OUTPUT ENERGY PRECISION 4
Info: CROSSTERM ENERGY INCLUDED IN DIHEDRAL
Info: TIMING OUTPUT STEPS    1000000
Info: PRESSURE OUTPUT STEPS  100000
Info: ALCHEMICAL FEP ON
Info: FEP CURRENT LAMBDA VALUE     1
Info: FEP COMPARISON LAMBDA VALUE  0.95
Info: FEP INTRA-ALCHEMICAL NON-BONDED INTERACTIONS WILL BE RETAINED
Info: FEP INTRA-ALCHEMICAL BONDED INTERACTIONS WILL BE RETAINED
Info: FEP VDW SHIFTING COEFFICIENT 5
Info: FEP ELEC. ACTIVE FOR ANNIHILATED PARTICLES BETWEEN LAMBDA = 0 AND LAMBDA = 0.5
Info: FEP ELEC. ACTIVE FOR EXNIHILATED PARTICLES BETWEEN LAMBDA = 0.5 AND LAMBDA = 1
Info: FEP VDW ACTIVE FOR ANNIHILATED PARTICLES BETWEEN LAMBDA = 0 AND LAMBDA = 1
Info: FEP VDW ACTIVE FOR EXNIHILATED PARTICLES BETWEEN LAMBDA = 0 AND LAMBDA = 1
Info: FEP BOND ACTIVE FOR ANNIHILATED PARTICLES BETWEEN LAMBDA = 1 AND LAMBDA = 1
Info: FEP BOND ACTIVE FOR EXNIHILATED PARTICLES BETWEEN LAMBDA = 0 AND LAMBDA = 0
Info: LANGEVIN DYNAMICS ACTIVE
Info: LANGEVIN TEMPERATURE   300
Info: LANGEVIN USING BBK INTEGRATOR
Info: LANGEVIN DAMPING COEFFICIENT IS 1 INVERSE PS
Info: LANGEVIN DYNAMICS APPLIED TO HYDROGENS
Info: LANGEVIN PISTON PRESSURE CONTROL ACTIVE
Info:        TARGET PRESSURE IS 1.01325 BAR
Info:     OSCILLATION PERIOD IS 50 FS
Info:             DECAY TIME IS 25 FS
Info:     PISTON TEMPERATURE IS 300 K
Info:       PRESSURE CONTROL IS GROUP-BASED
Info:    INITIAL STRAIN RATE IS 0.000842033 0.000842033 0.000842033
Info:       CELL FLUCTUATION IS ISOTROPIC
Info: PARTICLE MESH EWALD (PME) ACTIVE
Info: PME TOLERANCE               1e-06
Info: PME EWALD COEFFICIENT       0.348832
Info: PME INTERPOLATION ORDER     4
Info: PME GRID DIMENSIONS         32 32 32
Info: PME MAXIMUM GRID SPACING    1
Info: PME CALCULATION WILL BE PERFORMED ON GPU
Info: FULL ELECTROSTATIC EVALUATION FREQUENCY      2
Info: USING VERLET I (r-RESPA) MTS SCHEME.
Info: C1 SPLITTING OF LONG RANGE ELECTROSTATICS
Info: PLACING ATOMS IN PATCHES BY HYDROGEN GROUPS
Info: RIGID BONDS TO HYDROGEN : ALL
Info:         ERROR TOLERANCE : 1e-08
Info:          MAX ITERATIONS : 100
Info: RIGID WATER USING SETTLE ALGORITHM
Info: RANDOM NUMBER SEED     1744073051
Info: USE HYDROGEN BONDS?    NO
Info: Using AMBER format force field!
Info: AMBER PARM FILE        mobley_7326706.prmtop
Info: COORDINATE PDB         mobley_7326706.pdb
Info: Exclusions will be read from PARM file!
Info: SCNB (VDW SCALING)     2
Info: USING ARITHMETIC MEAN TO COMBINE L-J SIGMA PARAMETERS
Info: BINARY COORDINATES     mobley_7326706_equil.coor
Info: SUMMARY OF PARAMETERS:
Info: 13 BONDS
Info: 18 ANGLES
Info:   18 HARMONIC
Info:   0 COSINE-BASED
Info: 13 DIHEDRAL
Info: 0 IMPROPER
Info: 0 CROSSTERM
Info: 0 VDW
Info: 78 VDW_PAIRS
Info: 0 NBTHOLE_PAIRS
Info: To read alchdata from file: mobley_7326706.pdb
Info: To read alchflag data from column: 5
Info: STRUCTURE SUMMARY:
Info: 2954 ATOMS
Info: 2954 BONDS
Info: 49 ANGLES
Info: 72 DIHEDRALS
Info: 0 IMPROPERS
Info: 0 CROSSTERMS
Info: 3055 EXCLUSIONS
Info: 2936 RIGID BONDS
Info: ALCH: 0 ATOMS TO DISAPPEAR IN FINAL STATE
Info: ALCH: 29 ATOMS TO APPEAR IN FINAL STATE
Info: 5926 DEGREES OF FREEDOM
Info: 993 HYDROGEN GROUPS
Info: 4 ATOMS IN LARGEST HYDROGEN GROUP
Info: 993 MIGRATION GROUPS
Info: 4 ATOMS IN LARGEST MIGRATION GROUP
Info: TOTAL MASS = 17916.2 amu
Info: TOTAL CHARGE = -0.000100015 e
Info: MASS DENSITY = 0.972022 g/cm^3
Info: ATOM DENSITY = 0.0965122 atoms/A^3
Info: ADDED 0 IMPLICIT EXCLUSIONS
Info: NONBONDED TABLE R-SQUARED SPACING: 0.0625
Info: NONBONDED TABLE SIZE: 705 POINTS
Info: REMOVING COM VELOCITY 0.0863316 0.155995 -0.130798
Info: Use 3D box decompostion in PME FFT.
Info: Updated CUDA force table with 4096 elements.
Info: Updated CUDA LJ table with 12 x 12 elements.
Info: Found 32 unique exclusion lists needing 116 bytes
TCL: Running for 1500000 steps
ETITLE: TS BOND ANGLE DIHED IMPRP ELECT VDW BOUNDARY MISC KINETIC TOTAL TEMP POTENTIAL TOTALAVG TEMPAVG PRESSURE GPRESSURE VOLUME PRESSAVG GPRESSAVG
ENERGY: 0 9.4197 11.8330 18.8436 0.0000 -10635.4553 1315.8923 0.0000 0.0000 1783.4450 -7496.0217 302.8925 -9279.4667 -7496.0217 302.8925 -635.0061 -540.3490 30607.5377 -635.0061 -540.3490
ENERGY: 300000 5.6334 11.3944 16.6880 0.0000 -10734.3103 1402.5181 0.0000 0.0000 1763.7826 -7534.2938 299.5531 -9298.0764 -7534.5519 299.6872 5.4786 59.9884 30250.7114 -186.6366 -112.5393
ENERGY: 600000 6.3043 18.1832 20.4051 0.0000 -10825.5337 1514.9510 0.0000 0.0000 1711.9686 -7553.7215 290.7532 -9265.6901 -7528.0538 299.3562 916.9835 1015.5870 30246.7750 -0.1884 69.1252
ENERGY: 900000 5.8516 13.4824 20.7562 0.0000 -10841.5797 1445.9294 0.0000 0.0000 1814.4300 -7541.1302 308.1548 -9355.5602 -7531.8668 300.2798 506.8933 555.4372 30177.1778 136.8628 201.1043
ENERGY: 1200000 7.5908 18.1903 19.8396 0.0000 -10755.3496 1404.4530 0.0000 0.0000 1766.4068 -7538.8692 299.9988 -9305.2760 -7532.1598 301.4973 90.8634 140.4337 30650.7992 177.5383 243.3822
ENERGY: 1500000 3.9653 15.2818 17.5745 0.0000 -10857.5575 1473.9561 0.0000 0.0000 1765.6281 -7581.1517 299.8665 -9346.7798 -7534.5174 301.0834 334.6375 452.6368 30439.1306 198.2075 267.5406
TCL: Running FEP window   2: Lambda1 0.95   Lambda2 0.8999999999999999 [dLambda -0.050000000000000044]
TCL: Setting parameter firsttimestep to 0
TCL: Setting parameter alchLambda to 0.95
Info: NONBONDED TABLE R-SQUARED SPACING: 0.0625
Info: NONBONDED TABLE SIZE: 705 POINTS
TCL: Setting parameter alchLambda2 to 0.8999999999999999
Info: NONBONDED TABLE R-SQUARED SPACING: 0.0625
Info: NONBONDED TABLE SIZE: 705 POINTS
TCL: Running for 1500000 steps
ETITLE: TS BOND ANGLE DIHED IMPRP ELECT VDW BOUNDARY MISC KINETIC TOTAL TEMP POTENTIAL TOTALAVG TEMPAVG PRESSURE GPRESSURE VOLUME PRESSAVG GPRESSAVG
ENERGY: 0 3.9653 15.2818 17.5745 0.0000 -10854.3931 1473.9456 0.0000 0.0000 1764.7567 -7578.8693 299.7185 -9343.6260 -7578.8693 299.7185 341.3104 435.5341 30439.1306 341.3104 435.5341
ENERGY: 300000 7.4331 11.8258 17.6892 0.0000 -10848.4028 1440.4005 0.0000 0.0000 1749.2964 -7621.7579 297.0928 -9371.0543 -7596.8352 296.2239 -61.9719 -5.4597 30516.6603 -171.1831 -101.3613
ENERGY: 600000 3.4567 16.0303 20.1021 0.0000 -10828.2092 1421.4421 0.0000 0.0000 1785.6878 -7581.4902 303.2734 -9367.1779 -7588.0360 297.8641 -136.6009 -132.4721 30765.6976 -275.2141 -216.0743
ENERGY: 900000 6.2799 6.5789 23.4759 0.0000 -10830.2176 1468.1962 0.0000 0.0000 1766.9504 -7558.7364 300.0911 -9325.6867 -7571.0264 298.8630 7.7894 104.8444 30961.3176 -377.3835 -314.7196
ENERGY: 1200000 10.4123 11.3159 20.6543 0.0000 -10796.1348 1455.6940 0.0000 0.0000 1839.3469 -7458.7115 312.3866 -9298.0584 -7560.2971 298.7609 326.9079 397.9507 30736.4474 -273.7626 -214.4704
ENERGY: 1500000 5.5837 11.3613 17.2727 0.0000 -10719.9883 1359.6131 0.0000 0.0000 1760.4413 -7565.7162 298.9856 -9326.1575 -7551.9057 299.2711 -788.8489 -797.9929 30863.7860 -273.8700 -222.9281
TCL: Running FEP window   3: Lambda1 0.8999999999999999 Lambda2 0.8499999999999999 [dLambda -0.050000000000000044]
TCL: Setting parameter firsttimestep to 0
TCL: Setting parameter alchLambda to 0.8999999999999999
Info: NONBONDED TABLE R-SQUARED SPACING: 0.0625
Info: NONBONDED TABLE SIZE: 705 POINTS
TCL: Setting parameter alchLambda2 to 0.8499999999999999
Info: NONBONDED TABLE R-SQUARED SPACING: 0.0625
Info: NONBONDED TABLE SIZE: 705 POINTS
TCL: Running for 1500000 steps
ETITLE: TS BOND ANGLE DIHED IMPRP ELECT VDW BOUNDARY MISC KINETIC TOTAL TEMP POTENTIAL TOTALAVG TEMPAVG PRESSURE GPRESSURE VOLUME PRESSAVG GPRESSAVG
ENERGY: 0 5.5837 11.3613 17.2727 0.0000 -10717.2471 1360.0898 0.0000 0.0000 1759.5879 -7563.3517 298.8407 -9322.9396 -7563.3517 298.8407 -891.6535 -812.3672 30863.7860 -891.6535 -812.3672
ENERGY: 300000 7.5066 15.1309 18.9554 0.0000 -10698.4990 1351.3689 0.0000 0.0000 1727.6787 -7577.8584 293.4214 -9305.5372 -7539.7298 298.1771 -643.6641 -597.5486 30685.8810 -148.5112 -92.7966
ENERGY: 600000 6.7331 12.0766 17.9290 0.0000 -10770.5141 1370.4846 0.0000 0.0000 1782.7052 -7580.5856 302.7668 -9363.2908 -7536.5941 299.9158 -510.5010 -459.3962 30669.8641 -236.7021 -188.2603
ENERGY: 900000 2.8254 11.0355 23.9007 0.0000 -10958.1831 1480.3677 0.0000 0.0000 1802.3604 -7637.6933 306.1050 -9440.0538 -7558.9007 300.8706 421.5291 511.0498 29955.0010 -107.2942 -44.6553
ENERGY: 1200000 5.2558 12.8953 17.2001 0.0000 -10789.3580 1473.2516 0.0000 0.0000 1840.0828 -7440.6723 312.5116 -9280.7551 -7553.6053 301.3543 576.8035 573.4883 30480.4078 -22.7715 39.7455
ENERGY: 1500000 8.0218 10.1929 20.8309 0.0000 -10922.2131 1502.4425 0.0000 0.0000 1822.6384 -7558.0866 309.5489 -9380.7250 -7550.6514 301.9050 509.4155 539.9588 30415.1147 -6.1335 55.0929
TCL: Running FEP window   4: Lambda1 0.8499999999999999 Lambda2 0.7999999999999998 [dLambda -0.050000000000000044]
TCL: Setting parameter firsttimestep to 0
TCL: Setting parameter alchLambda to 0.8499999999999999
Info: NONBONDED TABLE R-SQUARED SPACING: 0.0625
Info: NONBONDED TABLE SIZE: 705 POINTS
TCL: Setting parameter alchLambda2 to 0.7999999999999998
Info: NONBONDED TABLE R-SQUARED SPACING: 0.0625
Info: NONBONDED TABLE SIZE: 705 POINTS
TCL: Running for 1500000 steps
ETITLE: TS BOND ANGLE DIHED IMPRP ELECT VDW BOUNDARY MISC KINETIC TOTAL TEMP POTENTIAL TOTALAVG TEMPAVG PRESSURE GPRESSURE VOLUME PRESSAVG GPRESSAVG
ENERGY: 0 8.0218 10.1929 20.8309 0.0000 -10920.3851 1503.1978 0.0000 0.0000 1821.7801 -7556.3617 309.4031 -9378.1418 -7556.3617 309.4031 439.8137 534.0558 30415.1147 439.8137 534.0558
ENERGY: 300000 6.1011 8.9945 22.2026 0.0000 -10741.4065 1472.9648 0.0000 0.0000 1748.0266 -7483.1169 296.8772 -9231.1435 -7519.3360 301.8286 593.2918 666.5966 30826.9110 481.1702 560.2731
ENERGY: 600000 8.3628 13.0926 20.4138 0.0000 -10809.6673 1445.5280 0.0000 0.0000 1741.3657 -7580.9045 295.7459 -9322.2701 -7545.0237 298.0736 29.9867 38.7849 30976.8098 153.2878 211.8787
ENERGY: 900000 5.7472 17.1457 16.6765 0.0000 -10731.7916 1428.6724 0.0000 0.0000 1760.0981 -7503.4517 298.9273 -9263.5497 -7539.4685 298.7702 31.9378 89.3440 30733.7463 53.0429 114.5115
ENERGY: 1200000 8.5968 9.4223 19.5407 0.0000 -10770.4517 1425.2547 0.0000 0.0000 1731.1974 -7576.4400 294.0189 -9307.6373 -7548.5982 298.7564 -226.8188 -178.3155 30963.8143 -53.0908 2.8008
ENERGY: 1500000 7.8288 10.7351 23.2649 0.0000 -11037.0716 1559.8626 0.0000 0.0000 1715.8327 -7719.5475 291.4095 -9435.3802 -7554.3420 298.8619 731.5785 860.4985 30143.0775 -29.7887 24.8872
TCL: Running FEP window   5: Lambda1 0.7999999999999998 Lambda2 0.7499999999999998 [dLambda -0.050000000000000044]
TCL: Setting parameter firsttimestep to 0
TCL: Setting parameter alchLambda to 0.7999999999999998
Info: NONBONDED TABLE R-SQUARED SPACING: 0.0625
Info: NONBONDED TABLE SIZE: 705 POINTS
TCL: Setting parameter alchLambda2 to 0.7499999999999998
Info: NONBONDED TABLE R-SQUARED SPACING: 0.0625
Info: NONBONDED TABLE SIZE: 705 POINTS
TCL: Running for 1500000 steps
ETITLE: TS BOND ANGLE DIHED IMPRP ELECT VDW BOUNDARY MISC KINETIC TOTAL TEMP POTENTIAL TOTALAVG TEMPAVG PRESSURE GPRESSURE VOLUME PRESSAVG GPRESSAVG
ENERGY: 0 7.8288 10.7351 23.2649 0.0000 -11036.3008 1560.2560 0.0000 0.0000 1714.9678 -7719.2483 291.2626 -9434.2161 -7719.2483 291.2626 770.2507 843.2250 30143.0775 770.2507 843.2250
ENERGY: 300000 7.0008 16.2716 18.0605 0.0000 -10830.1966 1438.7405 0.0000 0.0000 1803.8521 -7546.2711 306.3583 -9350.1232 -7587.5745 299.5041 54.5687 105.6903 30466.7825 89.6949 160.5413
ENERGY: 600000 4.3146 12.0836 23.6470 0.0000 -10680.1307 1387.0431 0.0000 0.0000 1675.0375 -7578.0049 284.4810 -9253.0424 -7571.4159 297.5275 -266.2612 -210.2542 30990.7232 -189.6145 -121.3725
ENERGY: 900000 5.4220 8.4617 22.9681 0.0000 -10640.7608 1415.8682 0.0000 0.0000 1744.4772 -7443.5636 296.2743 -9188.0408 -7551.2039 297.9630 346.2609 365.8395 30315.0656 -117.3427 -54.0531
ENERGY: 1200000 5.5687 11.4652 18.5892 0.0000 -10875.3759 1428.4033 0.0000 0.0000 1800.8057 -7610.5436 305.8409 -9411.3494 -7556.7203 299.0182 -8.9216 -0.6346 30259.5143 -151.1821 -91.7590
ENERGY: 1500000 4.1497 12.1956 19.5067 0.0000 -10806.7824 1401.4673 0.0000 0.0000 1751.2777 -7618.1855 297.4293 -9369.4631 -7559.4402 298.7744 -317.7934 -263.9500 30407.1833 -204.6604 -146.8161
TCL: Running FEP window   6: Lambda1 0.7499999999999998 Lambda2 0.6999999999999997 [dLambda -0.050000000000000044]
TCL: Setting parameter firsttimestep to 0
TCL: Setting parameter alchLambda to 0.7499999999999998
Info: NONBONDED TABLE R-SQUARED SPACING: 0.0625
Info: NONBONDED TABLE SIZE: 705 POINTS
TCL: Setting parameter alchLambda2 to 0.6999999999999997
Info: NONBONDED TABLE R-SQUARED SPACING: 0.0625
Info: NONBONDED TABLE SIZE: 705 POINTS
TCL: Running for 1500000 steps
ETITLE: TS BOND ANGLE DIHED IMPRP ELECT VDW BOUNDARY MISC KINETIC TOTAL TEMP POTENTIAL TOTALAVG TEMPAVG PRESSURE GPRESSURE VOLUME PRESSAVG GPRESSAVG
ENERGY: 0 4.1497 12.1956 19.5067 0.0000 -10804.5850 1402.0940 0.0000 0.0000 1750.4002 -7616.2389 297.2803 -9366.6390 -7616.2389 297.2803 -349.6332 -274.0379 30407.1833 -349.6332 -274.0379
ENERGY: 300000 6.4167 12.2755 19.3012 0.0000 -10663.7672 1370.3777 0.0000 0.0000 1773.3934 -7482.0028 301.1853 -9255.3962 -7536.6615 299.5123 -14.2372 12.1825 30066.4340 -185.0020 -106.9208
ENERGY: 600000 10.0955 13.6010 22.7283 0.0000 -10740.8647 1438.4757 0.0000 0.0000 1768.3545 -7487.6096 300.3296 -9255.9641 -7517.6173 299.8422 225.2177 221.4283 30381.6858 -254.0578 -195.6495
ENERGY: 900000 8.0153 9.2529 19.7039 0.0000 -10853.2916 1437.8320 0.0000 0.0000 1748.7687 -7629.7187 297.0032 -9378.4874 -7533.6184 299.4883 -127.7954 -74.8710 30253.6088 -242.9150 -191.7939
ENERGY: 1200000 12.7849 13.2929 22.6840 0.0000 -10792.0523 1415.6993 0.0000 0.0000 1770.4005 -7557.1907 300.6770 -9327.5912 -7539.3112 300.0407 -54.7332 20.0328 30238.0316 -189.5248 -139.7125
ENERGY: 1500000 4.6003 11.8516 19.2201 0.0000 -10777.0676 1456.5926 0.0000 0.0000 1771.6913 -7513.1115 300.8963 -9284.8029 -7536.2168 300.6677 247.4521 301.2227 30627.2302 -41.7591 8.3798
TCL: Running FEP window   7: Lambda1 0.6999999999999997 Lambda2 0.6499999999999997 [dLambda -0.050000000000000044]
TCL: Setting parameter firsttimestep to 0
TCL: Setting parameter alchLambda to 0.6999999999999997
Info: NONBONDED TABLE R-SQUARED SPACING: 0.0625
Info: NONBONDED TABLE SIZE: 705 POINTS
TCL: Setting parameter alchLambda2 to 0.6499999999999997
Info: NONBONDED TABLE R-SQUARED SPACING: 0.0625
Info: NONBONDED TABLE SIZE: 705 POINTS
TCL: Running for 1500000 steps
ETITLE: TS BOND ANGLE DIHED IMPRP ELECT VDW BOUNDARY MISC KINETIC TOTAL TEMP POTENTIAL TOTALAVG TEMPAVG PRESSURE GPRESSURE VOLUME PRESSAVG GPRESSAVG
ENERGY: 0 4.6003 11.8516 19.2201 0.0000 -10775.4657 1457.0929 0.0000 0.0000 1770.8056 -7511.8951 300.7458 -9282.7007 -7511.8951 300.7458 215.5398 289.7221 30627.2302 215.5398 289.7221
ENERGY: 300000 7.8960 13.3268 18.0191 0.0000 -10712.4666 1387.9862 0.0000 0.0000 1729.7136 -7555.5250 293.7670 -9285.2386 -7545.2716 297.6521 -303.7340 -276.8754 30595.6653 117.9451 179.4610
ENERGY: 600000 2.3212 16.1001 19.0098 0.0000 -10756.5727 1450.9210 0.0000 0.0000 1737.3937 -7530.8269 295.0713 -9268.2206 -7575.5792 295.7722 327.1387 396.5998 30361.3388 18.7231 86.3395
ENERGY: 900000 2.2548 20.1404 18.3868 0.0000 -10667.4729 1409.0910 0.0000 0.0000 1751.7869 -7465.8129 297.5158 -9217.5998 -7541.3479 296.4689 41.6109 119.0841 30563.8266 55.9353 112.9341
ENERGY: 1200000 8.9784 11.2536 19.3887 0.0000 -10687.7953 1407.8824 0.0000 0.0000 1763.8016 -7476.4907 299.5563 -9240.2922 -7544.5843 296.2898 -140.6274 -75.7905 30941.0568 -31.1856 28.7887
ENERGY: 1500000 6.6949 14.9823 21.2183 0.0000 -10762.8429 1397.4998 0.0000 0.0000 1721.6008 -7600.8468 292.3891 -9322.4476 -7544.7903 296.6254 -400.3997 -396.6529 30522.8601 -69.4363 -15.9281
TCL: Running FEP window   8: Lambda1 0.6499999999999997 Lambda2 0.5999999999999996 [dLambda -0.050000000000000044]
TCL: Setting parameter firsttimestep to 0
TCL: Setting parameter alchLambda to 0.6499999999999997
Info: NONBONDED TABLE R-SQUARED SPACING: 0.0625
Info: NONBONDED TABLE SIZE: 705 POINTS
TCL: Setting parameter alchLambda2 to 0.5999999999999996
Info: NONBONDED TABLE R-SQUARED SPACING: 0.0625
Info: NONBONDED TABLE SIZE: 705 POINTS
TCL: Running for 1500000 steps
ETITLE: TS BOND ANGLE DIHED IMPRP ELECT VDW BOUNDARY MISC KINETIC TOTAL TEMP POTENTIAL TOTALAVG TEMPAVG PRESSURE GPRESSURE VOLUME PRESSAVG GPRESSAVG
ENERGY: 0 6.6949 14.9823 21.2183 0.0000 -10761.0500 1398.1615 0.0000 0.0000 1720.7399 -7599.2531 292.2429 -9319.9930 -7599.2531 292.2429 -483.9373 -402.8304 30522.8601 -483.9373 -402.8304
ENERGY: 300000 3.1213 9.6287 22.7654 0.0000 -10842.4975 1462.3959 0.0000 0.0000 1757.3624 -7587.2238 298.4627 -9344.5862 -7552.9336 299.6229 125.5058 201.6490 30250.9497 25.5696 96.1176
ENERGY: 600000 7.3528 13.5425 24.9005 0.0000 -10694.7726 1395.8673 0.0000 0.0000 1804.9901 -7448.1194 306.5516 -9253.1095 -7536.8476 300.4885 -490.7799 -308.7399 30883.1577 52.1876 148.6103
ENERGY: 900000 8.3301 16.4279 16.8566 0.0000 -10511.7386 1298.6994 0.0000 0.0000 1801.4472 -7369.9776 305.9499 -9171.4247 -7518.9017 301.0476 -901.3149 -823.7886 31212.9939 -122.6525 -32.4452
ENERGY: 1200000 4.7984 16.2202 20.2178 0.0000 -10742.4888 1372.0182 0.0000 0.0000 1801.6884 -7527.5458 305.9908 -9329.2342 -7529.1363 301.8689 -971.3127 -887.9392 31283.9894 -199.9155 -111.4997
ENERGY: 1500000 7.1022 12.0477 23.3696 0.0000 -10727.8637 1414.2225 0.0000 0.0000 1780.0925 -7491.0292 302.3231 -9271.1217 -7525.7629 301.9422 276.9598 367.0937 30141.5881 -205.6996 -118.5104
TCL: Running FEP window   9: Lambda1 0.5999999999999996 Lambda2 0.5499999999999996 [dLambda -0.050000000000000044]
TCL: Setting parameter firsttimestep to 0
TCL: Setting parameter alchLambda to 0.5999999999999996
Info: NONBONDED TABLE R-SQUARED SPACING: 0.0625
Info: NONBONDED TABLE SIZE: 705 POINTS
TCL: Setting parameter alchLambda2 to 0.5499999999999996
Info: NONBONDED TABLE R-SQUARED SPACING: 0.0625
Info: NONBONDED TABLE SIZE: 705 POINTS
TCL: Running for 1500000 steps
ETITLE: TS BOND ANGLE DIHED IMPRP ELECT VDW BOUNDARY MISC KINETIC TOTAL TEMP POTENTIAL TOTALAVG TEMPAVG PRESSURE GPRESSURE VOLUME PRESSAVG GPRESSAVG
ENERGY: 0 7.1022 12.0477 23.3696 0.0000 -10727.4307 1415.2573 0.0000 0.0000 1779.1968 -7490.4570 302.1710 -9269.6538 -7490.4570 302.1710 263.4980 363.6680 30141.5881 263.4980 363.6680
ENERGY: 300000 6.0263 11.6754 17.6929 0.0000 -10761.8813 1423.7240 0.0000 0.0000 1804.0261 -7498.7365 306.3879 -9302.7626 -7501.9880 305.6615 188.7571 297.4187 30283.6458 12.7152 93.8822
ENERGY: 600000 11.8962 11.8345 23.5416 0.0000 -10779.4034 1471.4463 0.0000 0.0000 1838.7757 -7421.9092 312.2896 -9260.6849 -7521.9456 304.7653 165.7202 240.6496 30598.1966 119.6500 172.3276
ENERGY: 900000 4.4780 12.4258 29.6807 0.0000 -10596.5743 1316.7129 0.0000 0.0000 1751.8092 -7481.4677 297.5196 -9233.2769 -7521.4371 303.4846 -1020.4556 -980.6395 30682.4454 87.2204 132.0386
ENERGY: 1200000 6.7822 12.4033 24.1388 0.0000 -10640.7592 1374.9296 0.0000 0.0000 1784.1739 -7438.3315 303.0162 -9222.5054 -7511.3795 303.2425 -457.3779 -339.8605 30768.1881 58.2494 111.5928
ENERGY: 1500000 5.2389 14.0066 20.4100 0.0000 -10743.3114 1455.1920 0.0000 0.0000 1751.6668 -7496.7972 297.4954 -9248.4640 -7508.2040 303.0043 131.6500 210.5020 30758.2612 48.6351 96.0455
TCL: Running FEP window  10: Lambda1 0.5499999999999996 Lambda2 0.4999999999999996 [dLambda -0.04999999999999999]
TCL: Setting parameter firsttimestep to 0
TCL: Setting parameter alchLambda to 0.5499999999999996
Info: NONBONDED TABLE R-SQUARED SPACING: 0.0625
Info: NONBONDED TABLE SIZE: 705 POINTS
TCL: Setting parameter alchLambda2 to 0.4999999999999996
Info: NONBONDED TABLE R-SQUARED SPACING: 0.0625
Info: NONBONDED TABLE SIZE: 705 POINTS
TCL: Running for 1500000 steps
ETITLE: TS BOND ANGLE DIHED IMPRP ELECT VDW BOUNDARY MISC KINETIC TOTAL TEMP POTENTIAL TOTALAVG TEMPAVG PRESSURE GPRESSURE VOLUME PRESSAVG GPRESSAVG
ENERGY: 0 5.2389 14.0066 20.4100 0.0000 -10740.9582 1454.9688 0.0000 0.0000 1750.8349 -7495.4990 297.3541 -9246.3339 -7495.4990 297.3541 124.7658 200.4670 30758.2612 124.7658 200.4670
ENERGY: 300000 6.9693 14.9144 18.1182 0.0000 -10810.3692 1440.5963 0.0000 0.0000 1786.5941 -7543.1769 303.4273 -9329.7711 -7546.1367 298.5775 79.6494 140.4779 29924.9504 -306.3214 -235.2415
ENERGY: 600000 3.9817 11.9201 16.3185 0.0000 -10711.2806 1415.3356 0.0000 0.0000 1737.1862 -7526.5385 295.0361 -9263.7247 -7523.4153 299.6678 -426.3993 -297.4381 30946.8343 -189.9545 -125.0477
ENERGY: 900000 4.5498 13.1576 24.2764 0.0000 -10826.6263 1496.8302 0.0000 0.0000 1728.5000 -7559.3122 293.5608 -9287.8122 -7529.0381 299.4458 393.6402 391.9216 30612.9069 -91.1125 -38.6229
ENERGY: 1200000 4.6003 11.4571 23.4422 0.0000 -10602.1860 1325.5264 0.0000 0.0000 1751.4203 -7485.7397 297.4535 -9237.1600 -7533.4381 297.7533 -668.5014 -681.9595 30543.6609 -71.8216 -21.9079
ENERGY: 1500000 3.3545 13.1318 27.9690 0.0000 -10559.0080 1317.6248 0.0000 0.0000 1798.0120 -7398.9159 305.3664 -9196.9279 -7522.9488 298.7821 -583.5511 -579.5865 30585.6591 -131.9404 -75.0169
TCL: Running FEP window  11: Lambda1 0.4999999999999996 Lambda2 0.4499999999999996 [dLambda -0.04999999999999999]
TCL: Setting parameter firsttimestep to 0
TCL: Setting parameter alchLambda to 0.4999999999999996
Info: NONBONDED TABLE R-SQUARED SPACING: 0.0625
Info: NONBONDED TABLE SIZE: 705 POINTS
TCL: Setting parameter alchLambda2 to 0.4499999999999996
Info: NONBONDED TABLE R-SQUARED SPACING: 0.0625
Info: NONBONDED TABLE SIZE: 705 POINTS
TCL: Running for 1500000 steps
ETITLE: TS BOND ANGLE DIHED IMPRP ELECT VDW BOUNDARY MISC KINETIC TOTAL TEMP POTENTIAL TOTALAVG TEMPAVG PRESSURE GPRESSURE VOLUME PRESSAVG GPRESSAVG
ENERGY: 0 3.3545 13.1318 27.9690 0.0000 -10557.9419 1318.4250 0.0000 0.0000 1797.1330 -7397.9287 305.2172 -9195.0617 -7397.9287 305.2172 -651.7985 -584.0224 30585.6591 -651.7985 -584.0224
ENERGY: 300000 6.5403 11.2507 22.5935 0.0000 -10919.3338 1477.6430 0.0000 0.0000 1661.4281 -7739.8783 282.1696 -9401.3064 -7556.9338 296.7461 193.8718 260.2718 30435.8913 -202.3235 -136.5907
ENERGY: 600000 7.1598 11.3995 21.6654 0.0000 -10921.3010 1488.4215 0.0000 0.0000 1737.4989 -7655.1559 295.0892 -9392.6548 -7555.6786 298.2722 344.8974 385.3687 29961.1112 8.2933 65.5265
ENERGY: 900000 1.7793 11.1852 17.3942 0.0000 -10618.8563 1364.7046 0.0000 0.0000 1789.4706 -7434.3223 303.9158 -9223.7929 -7541.0720 299.0217 -135.2974 -132.9712 30379.0802 -128.7560 -81.6818
ENERGY: 1200000 4.6326 17.1836 19.4243 0.0000 -10713.4002 1390.6682 0.0000 0.0000 1798.7515 -7482.7400 305.4921 -9281.4915 -7544.6544 299.4927 -229.8766 -133.1002 30419.3031 -64.2856 -6.0588
ENERGY: 1500000 7.5884 9.5887 23.2289 0.0000 -10843.6317 1499.6419 0.0000 0.0000 1838.2500 -7465.3338 312.2003 -9303.5838 -7532.9886 300.6358 469.5579 539.3153 30461.3635 -77.4294 -19.3465
TCL: Running FEP window  12: Lambda1 0.4499999999999996 Lambda2 0.39999999999999963 [dLambda -0.04999999999999999]
TCL: Setting parameter firsttimestep to 0
TCL: Setting parameter alchLambda to 0.4499999999999996
Info: NONBONDED TABLE R-SQUARED SPACING: 0.0625
Info: NONBONDED TABLE SIZE: 705 POINTS
TCL: Setting parameter alchLambda2 to 0.39999999999999963
Info: NONBONDED TABLE R-SQUARED SPACING: 0.0625
Info: NONBONDED TABLE SIZE: 705 POINTS
TCL: Running for 1500000 steps
ETITLE: TS BOND ANGLE DIHED IMPRP ELECT VDW BOUNDARY MISC KINETIC TOTAL TEMP POTENTIAL TOTALAVG TEMPAVG PRESSURE GPRESSURE VOLUME PRESSAVG GPRESSAVG
ENERGY: 0 7.5884 9.5887 23.2289 0.0000 -10843.6316 1500.1855 0.0000 0.0000 1837.3882 -7465.6519 312.0539 -9303.0401 -7465.6519 312.0539 445.6524 530.1958 30461.3635 445.6524 530.1958
ENERGY: 300000 4.0760 13.7340 18.5351 0.0000 -10834.7827 1436.6729 0.0000 0.0000 1739.5533 -7622.2115 295.4381 -9361.7648 -7566.1063 298.4288 -127.7949 -30.4940 30097.6605 -34.2500 76.4761
ENERGY: 600000 6.0231 15.7313 21.8283 0.0000 -10760.5357 1473.6068 0.0000 0.0000 1775.0745 -7468.2717 301.4708 -9243.3462 -7551.6673 298.1377 287.8431 314.8288 30698.5399 -3.0184 101.6141
ENERGY: 900000 8.3825 13.8834 22.8821 0.0000 -10751.6867 1390.4964 0.0000 0.0000 1770.2936 -7545.7487 300.6589 -9316.0423 -7536.0661 298.8004 -605.6348 -487.7244 30774.9210 -117.2583 -16.0833
ENERGY: 1200000 2.5212 7.4777 18.2655 0.0000 -10816.1591 1465.7347 0.0000 0.0000 1761.3609 -7560.7992 299.1418 -9322.1601 -7544.2335 299.0449 413.3730 536.6305 30111.1953 -142.8071 -39.9413
ENERGY: 1500000 7.0135 14.6553 16.0349 0.0000 -10723.3753 1360.2280 0.0000 0.0000 1764.9829 -7560.4607 299.7569 -9325.4436 -7541.9231 298.7703 -528.8072 -481.8703 30210.9610 -223.2218 -136.3735
TCL: Running FEP window  13: Lambda1 0.39999999999999963 Lambda2 0.34999999999999964 [dLambda -0.04999999999999999]
TCL: Setting parameter firsttimestep to 0
TCL: Setting parameter alchLambda to 0.39999999999999963
Info: NONBONDED TABLE R-SQUARED SPACING: 0.0625
Info: NONBONDED TABLE SIZE: 705 POINTS
TCL: Setting parameter alchLambda2 to 0.34999999999999964
Info: NONBONDED TABLE R-SQUARED SPACING: 0.0625
Info: NONBONDED TABLE SIZE: 705 POINTS
TCL: Running for 1500000 steps
ETITLE: TS BOND ANGLE DIHED IMPRP ELECT VDW BOUNDARY MISC KINETIC TOTAL TEMP POTENTIAL TOTALAVG TEMPAVG PRESSURE GPRESSURE VOLUME PRESSAVG GPRESSAVG
ENERGY: 0 7.0135 14.6553 16.0349 0.0000 -10723.3736 1360.6024 0.0000 0.0000 1764.0802 -7560.9874 299.6036 -9325.0676 -7560.9874 299.6036 -580.4619 -486.6893 30210.9610 -580.4619 -486.6893
ENERGY: 300000 5.0293 14.3500 20.2818 0.0000 -10639.5950 1359.8312 0.0000 0.0000 1843.8867 -7396.2161 313.1576 -9240.1028 -7471.1165 306.0019 -488.4694 -438.0982 30717.3480 -308.5348 -250.6195
ENERGY: 600000 5.1407 17.0465 23.8792 0.0000 -10826.6670 1414.4247 0.0000 0.0000 1745.2928 -7620.8832 296.4128 -9366.1759 -7529.7639 302.5447 -332.9729 -261.8218 30196.0706 -171.4796 -105.0583
ENERGY: 900000 2.4098 16.5006 19.9904 0.0000 -10724.0810 1433.4870 0.0000 0.0000 1830.3001 -7421.3930 310.8501 -9251.6932 -7506.4795 305.2512 -127.6728 -46.9929 30723.5841 -104.5869 -43.9133
ENERGY: 1200000 10.9103 10.0978 24.3616 0.0000 -10762.0575 1431.6150 0.0000 0.0000 1748.7183 -7536.3547 296.9946 -9285.0729 -7505.6284 304.9854 -300.7261 -216.8001 30737.0257 -82.5975 -26.3194
ENERGY: 1500000 7.5573 13.7939 18.1771 0.0000 -10618.7339 1353.4525 0.0000 0.0000 1763.9798 -7461.7733 299.5866 -9225.7531 -7501.9670 304.4776 -368.2571 -293.1158 30442.4897 -93.3346 -43.6814
TCL: Running FEP window  14: Lambda1 0.34999999999999964 Lambda2 0.29999999999999966 [dLambda -0.04999999999999999]
TCL: Setting parameter firsttimestep to 0
TCL: Setting parameter alchLambda to 0.34999999999999964
Info: NONBONDED TABLE R-SQUARED SPACING: 0.0625
Info: NONBONDED TABLE SIZE: 705 POINTS
TCL: Setting parameter alchLambda2 to 0.29999999999999966
Info: NONBONDED TABLE R-SQUARED SPACING: 0.0625
Info: NONBONDED TABLE SIZE: 705 POINTS
TCL: Running for 1500000 steps
ETITLE: TS BOND ANGLE DIHED IMPRP ELECT VDW BOUNDARY MISC KINETIC TOTAL TEMP POTENTIAL TOTALAVG TEMPAVG PRESSURE GPRESSURE VOLUME PRESSAVG GPRESSAVG
ENERGY: 0 7.5573 13.7939 18.1771 0.0000 -10618.7325 1354.2975 0.0000 0.0000 1763.1136 -7461.7931 299.4395 -9224.9066 -7461.7931 299.4395 -379.4547 -295.6972 30442.4897 -379.4547 -295.6972
ENERGY: 300000 4.6967 12.5590 17.1809 0.0000 -10723.3118 1398.5156 0.0000 0.0000 1774.5651 -7515.7945 301.3843 -9290.3597 -7537.3467 296.2135 -290.2178 -195.9274 30298.8937 -147.3473 -88.5156
ENERGY: 600000 9.0032 11.9224 21.8049 0.0000 -10790.1383 1474.4944 0.0000 0.0000 1795.8605 -7477.0530 305.0010 -9272.9134 -7499.5779 300.8961 582.6201 639.4009 30262.8621 73.9051 141.4404
ENERGY: 900000 8.9148 13.7564 16.9690 0.0000 -10641.1185 1351.0062 0.0000 0.0000 1739.2019 -7511.2701 295.3784 -9250.4721 -7501.6791 300.3145 -884.4808 -824.2414 30690.6943 -3.5794 68.6312
ENERGY: 1200000 3.9732 12.8659 22.8995 0.0000 -10714.0147 1364.7972 0.0000 0.0000 1763.7863 -7545.6927 299.5537 -9309.4790 -7502.7159 300.5652 -502.6449 -465.3903 30480.3023 30.0907 104.5807
ENERGY: 1500000 10.0372 13.6075 24.8805 0.0000 -10675.6701 1414.9392 0.0000 0.0000 1769.4683 -7442.7374 300.5187 -9212.2057 -7502.4346 300.2627 48.9643 60.2257 30458.9115 21.4753 87.8370
TCL: Running FEP window  15: Lambda1 0.29999999999999966 Lambda2 0.24999999999999967 [dLambda -0.04999999999999999]
TCL: Setting parameter firsttimestep to 0
TCL: Setting parameter alchLambda to 0.29999999999999966
Info: NONBONDED TABLE R-SQUARED SPACING: 0.0625
Info: NONBONDED TABLE SIZE: 705 POINTS
TCL: Setting parameter alchLambda2 to 0.24999999999999967
Info: NONBONDED TABLE R-SQUARED SPACING: 0.0625
Info: NONBONDED TABLE SIZE: 705 POINTS
TCL: Running for 1500000 steps
ETITLE: TS BOND ANGLE DIHED IMPRP ELECT VDW BOUNDARY MISC KINETIC TOTAL TEMP POTENTIAL TOTALAVG TEMPAVG PRESSURE GPRESSURE VOLUME PRESSAVG GPRESSAVG
ENERGY: 0 10.0372 13.6075 24.8805 0.0000 -10675.6713 1415.9628 0.0000 0.0000 1768.5873 -7442.5961 300.3691 -9211.1833 -7442.5961 300.3691 -23.1168 57.6430 30458.9115 -23.1168 57.6430
ENERGY: 300000 5.2093 12.5411 17.9749 0.0000 -10836.1969 1453.1176 0.0000 0.0000 1791.0071 -7556.3468 304.1768 -9347.3539 -7509.2614 303.7600 125.2311 150.2214 30165.5157 326.1431 357.7717
ENERGY: 600000 4.0413 10.1688 19.9196 0.0000 -10715.5742 1460.5661 0.0000 0.0000 1762.2879 -7458.5904 299.2992 -9220.8783 -7489.7988 303.8673 343.8600 411.7079 30281.1606 327.4132 387.9210
ENERGY: 900000 5.4382 13.4578 18.8914 0.0000 -10728.3452 1458.3589 0.0000 0.0000 1793.8299 -7438.3690 304.6562 -9232.1989 -7499.7987 303.3614 477.8497 541.6948 30574.5435 236.1945 297.9967
ENERGY: 1200000 5.7539 10.2659 27.2705 0.0000 -10672.7468 1334.7317 0.0000 0.0000 1718.9367 -7575.7882 291.9366 -9294.7249 -7506.1562 302.9234 -908.7268 -807.3181 30332.9686 199.1160 268.5803
ENERGY: 1500000 4.3763 12.6374 21.1358 0.0000 -10724.3189 1412.5453 0.0000 0.0000 1758.0900 -7515.5341 298.5863 -9273.6241 -7505.7895 302.5774 61.2554 115.4553 30262.2308 148.2683 224.3835
TCL: Running FEP window  16: Lambda1 0.24999999999999967 Lambda2 0.19999999999999968 [dLambda -0.04999999999999999]
TCL: Setting parameter firsttimestep to 0
TCL: Setting parameter alchLambda to 0.24999999999999967
Info: NONBONDED TABLE R-SQUARED SPACING: 0.0625
Info: NONBONDED TABLE SIZE: 705 POINTS
TCL: Setting parameter alchLambda2 to 0.19999999999999968
Info: NONBONDED TABLE R-SQUARED SPACING: 0.0625
Info: NONBONDED TABLE SIZE: 705 POINTS
TCL: Running for 1500000 steps
ETITLE: TS BOND ANGLE DIHED IMPRP ELECT VDW BOUNDARY MISC KINETIC TOTAL TEMP POTENTIAL TOTALAVG TEMPAVG PRESSURE GPRESSURE VOLUME PRESSAVG GPRESSAVG
ENERGY: 0 4.3763 12.6374 21.1358 0.0000 -10724.3194 1411.9575 0.0000 0.0000 1757.2061 -7517.0064 298.4361 -9274.2124 -7517.0064 298.4361 31.3077 101.7634 30262.2308 31.3077 101.7634
ENERGY: 300000 5.9453 14.8103 24.9852 0.0000 -10729.0568 1383.8130 0.0000 0.0000 1727.9077 -7571.5952 293.4603 -9299.5029 -7526.5825 298.8214 -358.6877 -337.8386 30336.0616 -212.8851 -157.7960
ENERGY: 600000 4.0204 8.7720 19.8512 0.0000 -10676.2722 1377.5158 0.0000 0.0000 1801.8755 -7464.2374 306.0226 -9266.1128 -7507.4180 300.2853 -464.7986 -359.7647 30369.2202 -224.8536 -158.3684
ENERGY: 900000 4.0764 10.9418 18.9321 0.0000 -10656.3035 1408.0817 0.0000 0.0000 1806.4981 -7407.7734 306.8077 -9214.2715 -7505.0577 300.4444 95.0544 150.4052 30323.0054 -118.9891 -49.3338
ENERGY: 1200000 5.3091 14.7184 19.9565 0.0000 -10724.1405 1372.7968 0.0000 0.0000 1791.7896 -7519.5701 304.3097 -9311.3597 -7514.5831 300.3128 -807.1462 -688.1450 30592.0847 -109.7833 -37.0528
ENERGY: 1500000 4.9172 13.1618 25.9234 0.0000 -10798.5062 1445.8928 0.0000 0.0000 1744.3274 -7564.2836 296.2489 -9308.6110 -7516.4557 299.3535 50.3877 141.3537 30241.9564 -123.0327 -48.9930
TCL: Running FEP window  17: Lambda1 0.19999999999999968 Lambda2 0.1499999999999997 [dLambda -0.04999999999999999]
TCL: Setting parameter firsttimestep to 0
TCL: Setting parameter alchLambda to 0.19999999999999968
Info: NONBONDED TABLE R-SQUARED SPACING: 0.0625
Info: NONBONDED TABLE SIZE: 705 POINTS
TCL: Setting parameter alchLambda2 to 0.1499999999999997
Info: NONBONDED TABLE R-SQUARED SPACING: 0.0625
Info: NONBONDED TABLE SIZE: 705 POINTS
TCL: Running for 1500000 steps
ETITLE: TS BOND ANGLE DIHED IMPRP ELECT VDW BOUNDARY MISC KINETIC TOTAL TEMP POTENTIAL TOTALAVG TEMPAVG PRESSURE GPRESSURE VOLUME PRESSAVG GPRESSAVG
ENERGY: 0 4.9172 13.1618 25.9234 0.0000 -10798.5080 1445.6867 0.0000 0.0000 1743.4448 -7565.3741 296.0990 -9308.8189 -7565.3741 296.0990 53.2113 129.2231 30241.9564 53.2113 129.2231
ENERGY: 300000 10.4140 11.6899 26.2156 0.0000 -10687.2818 1379.4884 0.0000 0.0000 1785.8384 -7473.6355 303.2989 -9259.4739 -7541.3860 298.3461 -628.8876 -557.4631 30700.9114 -228.3053 -150.9114
ENERGY: 600000 6.1633 10.8416 21.0122 0.0000 -10638.9171 1373.0403 0.0000 0.0000 1731.5453 -7496.3144 294.0780 -9227.8597 -7542.2831 297.3610 -479.8622 -417.0124 30689.6480 -159.4933 -79.4188
ENERGY: 900000 4.7910 11.3765 23.6874 0.0000 -10708.1376 1410.9383 0.0000 0.0000 1806.9106 -7450.4337 306.8777 -9257.3443 -7530.7351 298.3675 -188.3536 -70.8458 30450.9403 -198.4540 -109.5718
ENERGY: 1200000 4.1817 14.1110 22.3121 0.0000 -10863.7580 1483.3710 0.0000 0.0000 1769.5718 -7570.2103 300.5363 -9339.7821 -7538.8271 298.5788 564.7293 652.0074 29800.8007 -117.1446 -27.1704
ENERGY: 1500000 6.8478 9.1552 22.6585 0.0000 -10713.8446 1391.1881 0.0000 0.0000 1736.6616 -7547.3334 294.9470 -9283.9950 -7534.9937 298.4035 -401.4043 -373.4210 30291.0799 -193.4642 -109.7897
TCL: Running FEP window  18: Lambda1 0.1499999999999997 Lambda2 0.09999999999999969 [dLambda -0.05 ]
TCL: Setting parameter firsttimestep to 0
TCL: Setting parameter alchLambda to 0.1499999999999997
Info: NONBONDED TABLE R-SQUARED SPACING: 0.0625
Info: NONBONDED TABLE SIZE: 705 POINTS
TCL: Setting parameter alchLambda2 to 0.09999999999999969
Info: NONBONDED TABLE R-SQUARED SPACING: 0.0625
Info: NONBONDED TABLE SIZE: 705 POINTS
TCL: Running for 1500000 steps
ETITLE: TS BOND ANGLE DIHED IMPRP ELECT VDW BOUNDARY MISC KINETIC TOTAL TEMP POTENTIAL TOTALAVG TEMPAVG PRESSURE GPRESSURE VOLUME PRESSAVG GPRESSAVG
ENERGY: 0 6.8478 9.1552 22.6585 0.0000 -10713.8463 1391.2348 0.0000 0.0000 1735.8345 -7548.1156 294.8065 -9283.9500 -7548.1156 294.8065 -451.2466 -379.7002 30291.0799 -451.2466 -379.7002
ENERGY: 300000 5.4865 11.0189 17.5877 0.0000 -10790.6392 1491.2799 0.0000 0.0000 1792.8308 -7472.4355 304.4865 -9265.2662 -7523.2125 299.9051 455.0732 461.2829 30160.4459 -119.2792 -58.3621
ENERGY: 600000 4.9084 13.3124 18.8008 0.0000 -10770.2642 1373.5381 0.0000 0.0000 1714.1872 -7645.5172 291.1300 -9359.7044 -7539.9583 299.4980 -743.7999 -728.4619 30256.0316 -219.4181 -174.1830
ENERGY: 900000 5.1719 20.7579 25.1029 0.0000 -10836.6199 1452.5267 0.0000 0.0000 1765.9615 -7567.0990 299.9231 -9333.0605 -7531.3583 300.7766 -11.3462 112.3259 29937.5052 -147.9639 -88.4365
ENERGY: 1200000 5.1422 14.2997 20.2601 0.0000 -10826.4970 1533.9604 0.0000 0.0000 1713.8292 -7539.0053 291.0692 -9252.8345 -7527.2130 301.4972 1032.5194 1102.7969 30041.5128 28.9926 89.3282
ENERGY: 1500000 4.4117 13.6117 17.5083 0.0000 -10816.4718 1472.8768 0.0000 0.0000 1779.7186 -7528.3447 302.2596 -9308.0633 -7527.8161 301.9529 454.1680 594.1529 29715.0793 25.6046 90.1299
TCL: Running FEP window  19: Lambda1 0.09999999999999969 Lambda2 0.049999999999999684 [dLambda -0.05 ]
TCL: Setting parameter firsttimestep to 0
TCL: Setting parameter alchLambda to 0.09999999999999969
Info: NONBONDED TABLE R-SQUARED SPACING: 0.0625
Info: NONBONDED TABLE SIZE: 705 POINTS
TCL: Setting parameter alchLambda2 to 0.049999999999999684
Info: NONBONDED TABLE R-SQUARED SPACING: 0.0625
Info: NONBONDED TABLE SIZE: 705 POINTS
TCL: Running for 1500000 steps
ETITLE: TS BOND ANGLE DIHED IMPRP ELECT VDW BOUNDARY MISC KINETIC TOTAL TEMP POTENTIAL TOTALAVG TEMPAVG PRESSURE GPRESSURE VOLUME PRESSAVG GPRESSAVG
ENERGY: 0 4.4117 13.6117 17.5083 0.0000 -10816.4706 1472.0796 0.0000 0.0000 1778.8353 -7530.0241 302.1096 -9308.8593 -7530.0241 302.1096 501.4216 582.7604 29715.0793 501.4216 582.7604
ENERGY: 300000 3.6455 11.4451 17.6977 0.0000 -10664.1005 1393.0150 0.0000 0.0000 1757.6430 -7480.6542 298.5104 -9238.2972 -7509.6648 299.9326 -511.9930 -399.1750 30555.6946 -47.9502 27.0520
ENERGY: 600000 4.4361 15.9950 18.2848 0.0000 -10652.7936 1326.4645 0.0000 0.0000 1725.9643 -7561.6488 293.1302 -9287.6132 -7524.8912 298.8114 -904.2866 -836.4170 30529.8519 -147.2919 -81.4493
ENERGY: 900000 6.0670 13.7243 22.9228 0.0000 -10932.6083 1500.4185 0.0000 0.0000 1777.3220 -7612.1538 301.8525 -9389.4758 -7534.4778 300.9756 296.8829 396.0603 29948.8827 -56.0038 12.7169
ENERGY: 1200000 7.4527 13.7035 23.0946 0.0000 -10837.5922 1494.5625 0.0000 0.0000 1859.4732 -7439.3057 315.8048 -9298.7789 -7517.9040 302.9029 445.2871 400.5747 30385.5487 -52.3769 8.1861
ENERGY: 1500000 6.7616 11.9992 22.1138 0.0000 -10626.8006 1360.0822 0.0000 0.0000 1777.1372 -7448.7066 301.8212 -9225.8437 -7514.9841 302.6350 -461.8486 -425.7924 30408.7753 -112.1394 -52.7497
TCL: Running FEP window  20: Lambda1 0.049999999999999684 Lambda2 0.0    [dLambda -0.049999999999999684]
TCL: Setting parameter firsttimestep to 0
TCL: Setting parameter alchLambda to 0.049999999999999684
Info: NONBONDED TABLE R-SQUARED SPACING: 0.0625
Info: NONBONDED TABLE SIZE: 705 POINTS
TCL: Setting parameter alchLambda2 to 0.0
Info: NONBONDED TABLE R-SQUARED SPACING: 0.0625
Info: NONBONDED TABLE SIZE: 705 POINTS
TCL: Running for 1500000 steps
ETITLE: TS BOND ANGLE DIHED IMPRP ELECT VDW BOUNDARY MISC KINETIC TOTAL TEMP POTENTIAL TOTALAVG TEMPAVG PRESSURE GPRESSURE VOLUME PRESSAVG GPRESSAVG
ENERGY: 0 6.7616 11.9992 22.1138 0.0000 -10626.8012 1359.0703 0.0000 0.0000 1776.2839 -7450.5723 301.6763 -9226.8563 -7450.5723 301.6763 -522.8770 -434.9001 30408.7753 -522.8770 -434.9001
ENERGY: 300000 5.8578 16.5705 17.9723 0.0000 -10836.0383 1552.8211 0.0000 0.0000 1764.7857 -7478.0307 299.7235 -9242.8165 -7484.0291 303.1329 1162.6858 1254.5881 29961.5456 200.8226 276.4700
ENERGY: 600000 6.5773 12.4783 17.0428 0.0000 -10855.8255 1474.3866 0.0000 0.0000 1768.3719 -7576.9686 300.3325 -9345.3405 -7498.4101 301.4768 -130.9546 -113.5963 30345.2193 75.0992 138.7595
ENERGY: 900000 3.4410 16.2540 23.3868 0.0000 -10805.7806 1453.2291 0.0000 0.0000 1782.0304 -7527.4393 302.6522 -9309.4698 -7515.7604 302.2341 26.9898 59.4643 30252.0460 -2.7822 57.0281
ENERGY: 1200000 3.2117 10.4662 21.4366 0.0000 -10709.0942 1432.8695 0.0000 0.0000 1746.2922 -7494.8179 296.5826 -9241.1101 -7516.5457 301.4266 -21.5761 -2.4452 30359.6735 23.0845 83.9170
ENERGY: 1500000 6.3344 9.4680 20.0129 0.0000 -10670.5238 1386.9168 0.0000 0.0000 1732.3177 -7515.4741 294.2092 -9247.7918 -7522.2778 299.9082 -473.8016 -372.6471 30196.2767 -46.2147 13.2666
TCL: Exiting due to exit command.
