Info: SIMULATION PARAMETERS:
Info: TIMESTEP               2
Info: NUMBER OF STEPS        0
Info: STEPS PER CYCLE        10
Info: PERIODIC CELL BASIS 1  34.265 0 0
Info: PERIODIC CELL BASIS 2  0 29.4534 0
Info: PERIODIC CELL BASIS 3  0 0 30.1808
Info: PERIODIC CELL CENTER   0 0 0
Info: WRAPPING WATERS AROUND PERIODIC BOUNDARIES ON OUTPUT.
Info: WRAPPING ALL CLUSTERS AROUND PERIODIC BOUNDARIES ON OUTPUT.
Info: FIRST LDB TIMESTEP     50
Info: LAST LDB TIMESTEP     -1
Info: HOM BACKGROUND SCALING 1
Info: PME BACKGROUND SCALING 1
Info: MIN ATOMS PER PATCH    40
Info: EMPTY PATCH LOAD       40 ATOMS
Info: VELOCITY FILE          mobley_1770205_equil.vel
Info: CENTER OF MASS MOVING INITIALLY? NO
Info: DIELECTRIC             1
Info: EXCLUDE                SCALED ONE-FOUR
Info: 1-4 ELECTROSTATICS SCALED BY 0.833333
Info: MODIFIED 1-4 VDW PARAMETERS WILL BE USED
Info: DCD FILENAME           mobley_1770205_prod.dcd
Info: DCD FREQUENCY          100000
Info: DCD FIRST STEP         100000
Info: DCD FILE WILL CONTAIN UNIT CELL DATA
Info: XST FILENAME           mobley_1770205_prod.xst
Info: XST FREQUENCY          100000
Info: NO VELOCITY DCD OUTPUT
Info: NO FORCE DCD OUTPUT
Info: OUTPUT FILENAME        mobley_1770205_prod
Info: BINARY OUTPUT FILES WILL BE USED
Info: RESTART FILENAME       mobley_1770205_prod.restart
Info: RESTART FREQUENCY      100000
Info: BINARY RESTART FILES WILL BE USED
Info: CUTOFF                 9
Info: PAIRLIST DISTANCE      11
Info: PAIRLIST SHRINK RATE   0.01
Info: PAIRLIST GROW RATE     0.01
Info: PAIRLIST TRIGGER       0.3
Info: PAIRLISTS PER CYCLE    2
Info: PAIRLISTS ENABLED
Info: MARGIN                 2
Info: HYDROGEN GROUP CUTOFF  2.5
Info: PATCH DIMENSION        15.5
Info: ENERGY OUTPUT STEPS    100000
Info: ENERGY EVALUATION STEPS    100000
Info: OUTPUT ENERGY PRECISION 4
Info: CROSSTERM ENERGY INCLUDED IN DIHEDRAL
Info: TIMING OUTPUT STEPS    1000000
Info: PRESSURE OUTPUT STEPS  100000
Info: ALCHEMICAL FEP ON
Info: FEP CURRENT LAMBDA VALUE     1
Info: FEP COMPARISON LAMBDA VALUE  0.95
Info: FEP INTRA-ALCHEMICAL NON-BONDED INTERACTIONS WILL BE RETAINED
Info: FEP INTRA-ALCHEMICAL BONDED INTERACTIONS WILL BE RETAINED
Info: FEP VDW SHIFTING COEFFICIENT 5
Info: FEP ELEC. ACTIVE FOR ANNIHILATED PARTICLES BETWEEN LAMBDA = 0 AND LAMBDA = 0.5
Info: FEP ELEC. ACTIVE FOR EXNIHILATED PARTICLES BETWEEN LAMBDA = 0.5 AND LAMBDA = 1
Info: FEP VDW ACTIVE FOR ANNIHILATED PARTICLES BETWEEN LAMBDA = 0 AND LAMBDA = 1
Info: FEP VDW ACTIVE FOR EXNIHILATED PARTICLES BETWEEN LAMBDA = 0 AND LAMBDA = 1
Info: FEP BOND ACTIVE FOR ANNIHILATED PARTICLES BETWEEN LAMBDA = 1 AND LAMBDA = 1
Info: FEP BOND ACTIVE FOR EXNIHILATED PARTICLES BETWEEN LAMBDA = 0 AND LAMBDA = 0
Info: LANGEVIN DYNAMICS ACTIVE
Info: LANGEVIN TEMPERATURE   300
Info: LANGEVIN USING BBK INTEGRATOR
Info: LANGEVIN DAMPING COEFFICIENT IS 1 INVERSE PS
Info: LANGEVIN DYNAMICS APPLIED TO HYDROGENS
Info: LANGEVIN PISTON PRESSURE CONTROL ACTIVE
Info:        TARGET PRESSURE IS 1.01325 BAR
Info:     OSCILLATION PERIOD IS 50 FS
Info:             DECAY TIME IS 25 FS
Info:     PISTON TEMPERATURE IS 300 K
Info:       PRESSURE CONTROL IS GROUP-BASED
Info:    INITIAL STRAIN RATE IS -0.0001925 -0.0001925 -0.0001925
Info:       CELL FLUCTUATION IS ISOTROPIC
Info: PARTICLE MESH EWALD (PME) ACTIVE
Info: PME TOLERANCE               1e-06
Info: PME EWALD COEFFICIENT       0.348832
Info: PME INTERPOLATION ORDER     4
Info: PME GRID DIMENSIONS         36 32 32
Info: PME MAXIMUM GRID SPACING    1
Info: PME CALCULATION WILL BE PERFORMED ON GPU
Info: FULL ELECTROSTATIC EVALUATION FREQUENCY      2
Info: USING VERLET I (r-RESPA) MTS SCHEME.
Info: C1 SPLITTING OF LONG RANGE ELECTROSTATICS
Info: PLACING ATOMS IN PATCHES BY HYDROGEN GROUPS
Info: RIGID BONDS TO HYDROGEN : ALL
Info:         ERROR TOLERANCE : 1e-08
Info:          MAX ITERATIONS : 100
Info: RIGID WATER USING SETTLE ALGORITHM
Info: RANDOM NUMBER SEED     1744107066
Info: USE HYDROGEN BONDS?    NO
Info: Using AMBER format force field!
Info: AMBER PARM FILE        mobley_1770205.prmtop
Info: COORDINATE PDB         mobley_1770205.pdb
Info: Exclusions will be read from PARM file!
Info: SCNB (VDW SCALING)     2
Info: USING ARITHMETIC MEAN TO COMBINE L-J SIGMA PARAMETERS
Info: BINARY COORDINATES     mobley_1770205_equil.coor
Info: SUMMARY OF PARAMETERS:
Info: 18 BONDS
Info: 24 ANGLES
Info:   24 HARMONIC
Info:   0 COSINE-BASED
Info: 14 DIHEDRAL
Info: 0 IMPROPER
Info: 0 CROSSTERM
Info: 0 VDW
Info: 78 VDW_PAIRS
Info: 0 NBTHOLE_PAIRS
Info: To read alchdata from file: mobley_1770205.pdb
Info: To read alchflag data from column: 5
Info: STRUCTURE SUMMARY:
Info: 2932 ATOMS
Info: 2933 BONDS
Info: 53 ANGLES
Info: 71 DIHEDRALS
Info: 0 IMPROPERS
Info: 0 CROSSTERMS
Info: 3041 EXCLUSIONS
Info: 2913 RIGID BONDS
Info: ALCH: 0 ATOMS TO DISAPPEAR IN FINAL STATE
Info: ALCH: 31 ATOMS TO APPEAR IN FINAL STATE
Info: 5883 DEGREES OF FREEDOM
Info: 986 HYDROGEN GROUPS
Info: 4 ATOMS IN LARGEST HYDROGEN GROUP
Info: 986 MIGRATION GROUPS
Info: 4 ATOMS IN LARGEST MIGRATION GROUP
Info: TOTAL MASS = 17738.8 amu
Info: TOTAL CHARGE = 9.99719e-05 e
Info: MASS DENSITY = 0.967088 g/cm^3
Info: ATOM DENSITY = 0.0962602 atoms/A^3
Info: ADDED 0 IMPLICIT EXCLUSIONS
Info: NONBONDED TABLE R-SQUARED SPACING: 0.0625
Info: NONBONDED TABLE SIZE: 705 POINTS
Info: REMOVING COM VELOCITY 0.00676351 -0.0928405 -0.00574578
Info: Use 3D box decompostion in PME FFT.
Info: Updated CUDA force table with 4096 elements.
Info: Updated CUDA LJ table with 12 x 12 elements.
Info: Found 30 unique exclusion lists needing 112 bytes
TCL: Running for 1500000 steps
ETITLE: TS BOND ANGLE DIHED IMPRP ELECT VDW BOUNDARY MISC KINETIC TOTAL TEMP POTENTIAL TOTALAVG TEMPAVG PRESSURE GPRESSURE VOLUME PRESSAVG GPRESSAVG
ENERGY: 0 7.3139 20.1028 21.4145 0.0000 -10617.8233 1398.2612 0.0000 0.0000 1752.3143 -7418.4166 299.7806 -9170.7309 -7418.4166 299.7806 -272.4686 -187.7300 30459.0979 -272.4686 -187.7300
ENERGY: 300000 6.2529 19.9304 21.5418 0.0000 -10679.1694 1453.9328 0.0000 0.0000 1750.8125 -7426.6991 299.5237 -9177.5116 -7417.4485 302.0515 108.6398 108.9493 30544.0947 -147.2355 -87.5752
ENERGY: 600000 9.4477 21.6566 20.4133 0.0000 -10736.3768 1399.2669 0.0000 0.0000 1804.5874 -7481.0048 308.7233 -9285.5922 -7433.8976 302.8203 -261.3586 -152.8453 30021.3274 -121.9240 -54.9158
ENERGY: 900000 9.8233 21.8057 19.0874 0.0000 -10611.6771 1357.2603 0.0000 0.0000 1710.9450 -7492.7554 292.7033 -9203.7004 -7441.3239 302.3708 -241.9586 -217.6914 30021.6306 -41.5438 24.4488
ENERGY: 1200000 3.0697 19.1482 19.3953 0.0000 -10417.5817 1300.1496 0.0000 0.0000 1796.0576 -7279.7613 307.2641 -9075.8189 -7430.0743 303.1889 -424.3980 -357.4849 30563.6574 86.6465 152.7540
ENERGY: 1500000 6.2984 16.7898 21.3194 0.0000 -10459.4082 1281.9463 0.0000 0.0000 1737.8597 -7395.1946 297.3078 -9133.0542 -7425.8034 301.6121 -648.8385 -655.8513 29938.5418 -68.6434 -6.6459
TCL: Running FEP window   2: Lambda1 0.95   Lambda2 0.8999999999999999 [dLambda -0.050000000000000044]
TCL: Setting parameter firsttimestep to 0
TCL: Setting parameter alchLambda to 0.95
Info: NONBONDED TABLE R-SQUARED SPACING: 0.0625
Info: NONBONDED TABLE SIZE: 705 POINTS
TCL: Setting parameter alchLambda2 to 0.8999999999999999
Info: NONBONDED TABLE R-SQUARED SPACING: 0.0625
Info: NONBONDED TABLE SIZE: 705 POINTS
TCL: Running for 1500000 steps
ETITLE: TS BOND ANGLE DIHED IMPRP ELECT VDW BOUNDARY MISC KINETIC TOTAL TEMP POTENTIAL TOTALAVG TEMPAVG PRESSURE GPRESSURE VOLUME PRESSAVG GPRESSAVG
ENERGY: 0 6.2984 16.7898 21.3194 0.0000 -10456.8957 1282.1422 0.0000 0.0000 1736.9917 -7393.3541 297.1593 -9130.3458 -7393.3541 297.1593 -751.7578 -674.8983 29938.5418 -751.7578 -674.8983
ENERGY: 300000 5.5364 16.0147 18.8947 0.0000 -10679.8633 1378.7516 0.0000 0.0000 1772.0416 -7488.6243 303.1555 -9260.6659 -7467.5509 298.1230 -360.2189 -342.1817 30151.0464 -274.3183 -211.6465
ENERGY: 600000 5.1381 15.6011 26.9073 0.0000 -10750.2669 1438.0695 0.0000 0.0000 1729.3441 -7535.2069 295.8509 -9264.5510 -7465.3004 298.0983 65.0886 164.5094 30088.2996 -149.4825 -80.7147
ENERGY: 900000 6.2291 19.2578 23.9997 0.0000 -10665.6034 1389.4237 0.0000 0.0000 1779.3898 -7447.3032 304.4126 -9226.6930 -7456.7092 298.2877 -116.0762 -66.4652 30659.8167 -97.3560 -31.2108
ENERGY: 1200000 9.7095 14.7026 21.0803 0.0000 -10781.3500 1484.3619 0.0000 0.0000 1779.7272 -7471.7684 304.4703 -9251.4957 -7447.1546 299.9203 196.3265 272.3921 30501.3141 -168.5557 -102.5978
ENERGY: 1500000 7.6728 21.2308 20.0388 0.0000 -10665.4069 1390.6025 0.0000 0.0000 1779.1992 -7446.6627 304.3800 -9225.8619 -7440.5009 300.3518 -435.2344 -416.6518 30559.6899 -99.8012 -41.2945
TCL: Running FEP window   3: Lambda1 0.8999999999999999 Lambda2 0.8499999999999999 [dLambda -0.050000000000000044]
TCL: Setting parameter firsttimestep to 0
TCL: Setting parameter alchLambda to 0.8999999999999999
Info: NONBONDED TABLE R-SQUARED SPACING: 0.0625
Info: NONBONDED TABLE SIZE: 705 POINTS
TCL: Setting parameter alchLambda2 to 0.8499999999999999
Info: NONBONDED TABLE R-SQUARED SPACING: 0.0625
Info: NONBONDED TABLE SIZE: 705 POINTS
TCL: Running for 1500000 steps
ETITLE: TS BOND ANGLE DIHED IMPRP ELECT VDW BOUNDARY MISC KINETIC TOTAL TEMP POTENTIAL TOTALAVG TEMPAVG PRESSURE GPRESSURE VOLUME PRESSAVG GPRESSAVG
ENERGY: 0 7.6727 21.2309 20.0388 0.0000 -10661.3185 1388.9759 0.0000 0.0000 1778.3658 -7445.0344 304.2374 -9223.4002 -7445.0344 304.2374 -536.8796 -450.1187 30559.6899 -536.8796 -450.1187
ENERGY: 300000 5.9627 16.9585 18.1469 0.0000 -10583.2633 1408.0113 0.0000 0.0000 1799.8762 -7334.3076 307.9174 -9134.1838 -7456.7527 301.5903 288.1737 381.1971 29961.1243 -133.4937 -61.0481
ENERGY: 600000 10.9719 19.0245 18.8529 0.0000 -10594.1232 1412.8552 0.0000 0.0000 1737.6485 -7394.7703 297.2716 -9132.4187 -7449.6454 301.6167 -201.3635 -93.6293 30427.9417 -353.7526 -269.0888
ENERGY: 900000 3.2785 18.0850 21.0335 0.0000 -10623.9265 1396.3132 0.0000 0.0000 1753.1396 -7432.0767 299.9218 -9185.2162 -7456.8283 300.7491 -234.6026 -184.7740 30276.3514 -299.6641 -225.8926
ENERGY: 1200000 7.0517 25.5281 18.9922 0.0000 -10638.1450 1425.4144 0.0000 0.0000 1709.2992 -7451.8595 292.4217 -9161.1587 -7456.8400 299.3997 -144.9896 -66.8580 30642.4803 -246.6159 -178.4086
ENERGY: 1500000 5.5386 16.6492 19.8906 0.0000 -10668.2028 1448.7596 0.0000 0.0000 1706.1613 -7471.2036 291.8849 -9177.3648 -7451.3824 299.8762 691.4336 754.1735 29876.8974 -242.8952 -172.6451
TCL: Running FEP window   4: Lambda1 0.8499999999999999 Lambda2 0.7999999999999998 [dLambda -0.050000000000000044]
TCL: Setting parameter firsttimestep to 0
TCL: Setting parameter alchLambda to 0.8499999999999999
Info: NONBONDED TABLE R-SQUARED SPACING: 0.0625
Info: NONBONDED TABLE SIZE: 705 POINTS
TCL: Setting parameter alchLambda2 to 0.7999999999999998
Info: NONBONDED TABLE R-SQUARED SPACING: 0.0625
Info: NONBONDED TABLE SIZE: 705 POINTS
TCL: Running for 1500000 steps
ETITLE: TS BOND ANGLE DIHED IMPRP ELECT VDW BOUNDARY MISC KINETIC TOTAL TEMP POTENTIAL TOTALAVG TEMPAVG PRESSURE GPRESSURE VOLUME PRESSAVG GPRESSAVG
ENERGY: 0 5.5386 16.6492 19.8906 0.0000 -10665.1608 1448.8944 0.0000 0.0000 1705.2934 -7468.8947 291.7364 -9174.1881 -7468.8947 291.7364 660.2828 741.2601 29876.8974 660.2828 741.2601
ENERGY: 300000 7.1381 19.2392 17.9295 0.0000 -10452.1985 1302.0383 0.0000 0.0000 1751.5240 -7354.3293 299.6454 -9105.8533 -7397.6335 301.5517 -758.7278 -734.9139 30473.1655 381.1358 431.1086
ENERGY: 600000 6.8465 20.1663 20.3745 0.0000 -10569.5736 1397.5178 0.0000 0.0000 1744.4339 -7380.2346 298.4324 -9124.6684 -7412.0498 301.4210 73.3592 118.9582 30360.0971 414.4887 470.0848
ENERGY: 900000 8.3612 24.2605 19.2321 0.0000 -10685.3170 1529.3589 0.0000 0.0000 1764.0166 -7340.0877 301.7826 -9104.1043 -7401.7986 302.4246 870.4553 945.7548 30207.1185 295.1704 363.2877
ENERGY: 1200000 8.4335 15.6909 22.9133 0.0000 -10613.3524 1368.8243 0.0000 0.0000 1775.5446 -7421.9457 303.7548 -9197.4904 -7397.0028 302.8241 -186.7911 -121.5219 30201.7782 199.0519 263.1538
ENERGY: 1500000 5.5551 21.0071 23.0139 0.0000 -10614.7604 1444.4958 0.0000 0.0000 1726.1267 -7394.5618 295.3005 -9120.6885 -7401.5474 301.7962 334.5720 429.3045 30501.1379 80.4726 149.4754
TCL: Running FEP window   5: Lambda1 0.7999999999999998 Lambda2 0.7499999999999998 [dLambda -0.050000000000000044]
TCL: Setting parameter firsttimestep to 0
TCL: Setting parameter alchLambda to 0.7999999999999998
Info: NONBONDED TABLE R-SQUARED SPACING: 0.0625
Info: NONBONDED TABLE SIZE: 705 POINTS
TCL: Setting parameter alchLambda2 to 0.7499999999999998
Info: NONBONDED TABLE R-SQUARED SPACING: 0.0625
Info: NONBONDED TABLE SIZE: 705 POINTS
TCL: Running for 1500000 steps
ETITLE: TS BOND ANGLE DIHED IMPRP ELECT VDW BOUNDARY MISC KINETIC TOTAL TEMP POTENTIAL TOTALAVG TEMPAVG PRESSURE GPRESSURE VOLUME PRESSAVG GPRESSAVG
ENERGY: 0 5.5552 21.0071 23.0139 0.0000 -10610.5618 1443.3894 0.0000 0.0000 1725.2547 -7392.3415 295.1513 -9117.5962 -7392.3415 295.1513 320.1489 401.2658 30501.1379 320.1489 401.2658
ENERGY: 300000 5.5791 18.8557 19.3139 0.0000 -10624.5116 1374.0621 0.0000 0.0000 1764.7319 -7441.9690 301.9050 -9206.7009 -7402.7377 300.1963 -230.0295 -160.1479 30116.3207 -146.4458 -73.8831
ENERGY: 600000 8.0963 21.7097 26.2746 0.0000 -10622.8032 1352.8534 0.0000 0.0000 1739.7322 -7474.1371 297.6281 -9213.8692 -7414.5707 300.9377 -358.0504 -320.9156 30104.9846 -153.3188 -99.9119
ENERGY: 900000 7.3663 19.6399 18.1816 0.0000 -10786.3179 1569.7975 0.0000 0.0000 1778.3812 -7392.9515 304.2401 -9171.3327 -7427.7919 301.2764 1505.7061 1536.8813 30133.1310 -70.8493 -24.6409
ENERGY: 1200000 5.6447 20.6982 19.3617 0.0000 -10609.7532 1398.4888 0.0000 0.0000 1734.9956 -7430.5641 296.8178 -9165.5597 -7416.0311 300.4296 -168.3545 -50.9555 30123.2310 -152.7209 -100.4110
ENERGY: 1500000 5.2671 18.6675 19.7129 0.0000 -10705.6692 1488.6695 0.0000 0.0000 1736.6023 -7436.7500 297.0926 -9173.3523 -7399.1621 301.1746 687.8437 769.2341 30155.4757 -106.4867 -48.5817
TCL: Running FEP window   6: Lambda1 0.7499999999999998 Lambda2 0.6999999999999997 [dLambda -0.050000000000000044]
TCL: Setting parameter firsttimestep to 0
TCL: Setting parameter alchLambda to 0.7499999999999998
Info: NONBONDED TABLE R-SQUARED SPACING: 0.0625
Info: NONBONDED TABLE SIZE: 705 POINTS
TCL: Setting parameter alchLambda2 to 0.6999999999999997
Info: NONBONDED TABLE R-SQUARED SPACING: 0.0625
Info: NONBONDED TABLE SIZE: 705 POINTS
TCL: Running for 1500000 steps
ETITLE: TS BOND ANGLE DIHED IMPRP ELECT VDW BOUNDARY MISC KINETIC TOTAL TEMP POTENTIAL TOTALAVG TEMPAVG PRESSURE GPRESSURE VOLUME PRESSAVG GPRESSAVG
ENERGY: 0 5.2671 18.6675 19.7129 0.0000 -10703.1698 1488.2497 0.0000 0.0000 1735.7446 -7435.5281 296.9459 -9171.2727 -7435.5281 296.9459 683.8368 750.0502 30155.4757 683.8368 750.0502
ENERGY: 300000 3.0064 20.6268 20.1849 0.0000 -10735.5740 1447.6391 0.0000 0.0000 1716.3895 -7527.7273 293.6347 -9244.1168 -7479.3020 298.5105 -134.6168 -127.3273 30474.7048 112.8022 138.3605
ENERGY: 600000 6.3386 18.1661 19.1791 0.0000 -10713.4641 1439.8508 0.0000 0.0000 1720.5220 -7509.4075 294.3417 -9229.9295 -7467.5979 297.8312 28.3449 21.0559 30184.9214 -41.9521 -27.7807
ENERGY: 900000 5.6459 17.8372 21.0350 0.0000 -10837.6958 1557.3178 0.0000 0.0000 1689.7687 -7546.0913 289.0805 -9235.8600 -7469.2190 297.8766 1188.4070 1315.3488 29698.9724 84.0468 118.0784
ENERGY: 1200000 10.2643 19.3961 21.3896 0.0000 -10738.8488 1478.5623 0.0000 0.0000 1762.4489 -7446.7877 301.5144 -9209.2366 -7462.0486 297.9339 434.8640 542.3325 29986.4096 54.4322 104.1118
ENERGY: 1500000 6.3948 24.1235 20.4133 0.0000 -10739.1053 1449.8977 0.0000 0.0000 1666.9356 -7571.3403 285.1743 -9238.2759 -7469.6769 296.8176 -144.0528 -71.8985 30675.9917 -0.7975 51.2276
TCL: Running FEP window   7: Lambda1 0.6999999999999997 Lambda2 0.6499999999999997 [dLambda -0.050000000000000044]
TCL: Setting parameter firsttimestep to 0
TCL: Setting parameter alchLambda to 0.6999999999999997
Info: NONBONDED TABLE R-SQUARED SPACING: 0.0625
Info: NONBONDED TABLE SIZE: 705 POINTS
TCL: Setting parameter alchLambda2 to 0.6499999999999997
Info: NONBONDED TABLE R-SQUARED SPACING: 0.0625
Info: NONBONDED TABLE SIZE: 705 POINTS
TCL: Running for 1500000 steps
ETITLE: TS BOND ANGLE DIHED IMPRP ELECT VDW BOUNDARY MISC KINETIC TOTAL TEMP POTENTIAL TOTALAVG TEMPAVG PRESSURE GPRESSURE VOLUME PRESSAVG GPRESSAVG
ENERGY: 0 6.3948 24.1235 20.4133 0.0000 -10736.5381 1450.4396 0.0000 0.0000 1666.0605 -7569.1063 285.0246 -9235.1668 -7569.1063 285.0246 -159.3987 -79.3157 30675.9917 -159.3987 -79.3157
ENERGY: 300000 6.1478 18.1203 21.0248 0.0000 -10782.0496 1510.6372 0.0000 0.0000 1758.6388 -7467.4808 300.8626 -9226.1196 -7491.3111 294.8308 946.0946 1013.4267 29821.7144 327.7045 388.3125
ENERGY: 600000 7.2743 20.7870 20.5655 0.0000 -10672.1387 1382.4819 0.0000 0.0000 1733.4431 -7507.5869 296.5522 -9241.0300 -7478.6981 297.2196 76.4442 26.6605 29678.1570 209.0822 251.8800
ENERGY: 900000 5.9942 20.0059 18.9069 0.0000 -10631.1263 1436.0160 0.0000 0.0000 1776.4880 -7373.7153 303.9162 -9150.2034 -7450.9553 297.0934 381.2228 428.4979 29886.2199 223.7186 277.7596
ENERGY: 1200000 7.7197 17.1617 20.7047 0.0000 -10811.1587 1523.0789 0.0000 0.0000 1795.3719 -7447.1217 307.1468 -9242.4936 -7442.7547 299.4618 678.1087 741.0521 29780.0260 153.3146 201.9496
ENERGY: 1500000 9.1735 21.4525 18.1135 0.0000 -10580.2772 1425.0482 0.0000 0.0000 1736.3315 -7370.1580 297.0463 -9106.4895 -7430.0851 299.2418 463.1286 493.3960 29933.5424 139.9788 187.6910
TCL: Running FEP window   8: Lambda1 0.6499999999999997 Lambda2 0.5999999999999996 [dLambda -0.050000000000000044]
TCL: Setting parameter firsttimestep to 0
TCL: Setting parameter alchLambda to 0.6499999999999997
Info: NONBONDED TABLE R-SQUARED SPACING: 0.0625
Info: NONBONDED TABLE SIZE: 705 POINTS
TCL: Setting parameter alchLambda2 to 0.5999999999999996
Info: NONBONDED TABLE R-SQUARED SPACING: 0.0625
Info: NONBONDED TABLE SIZE: 705 POINTS
TCL: Running for 1500000 steps
ETITLE: TS BOND ANGLE DIHED IMPRP ELECT VDW BOUNDARY MISC KINETIC TOTAL TEMP POTENTIAL TOTALAVG TEMPAVG PRESSURE GPRESSURE VOLUME PRESSAVG GPRESSAVG
ENERGY: 0 9.1735 21.4525 18.1135 0.0000 -10579.0666 1424.9189 0.0000 0.0000 1735.4675 -7369.9408 296.8985 -9105.4083 -7369.9408 296.8985 379.5004 474.1932 29933.5424 379.5004 474.1932
ENERGY: 300000 10.0625 19.0230 16.1355 0.0000 -10559.5510 1365.5301 0.0000 0.0000 1737.9057 -7410.8943 297.3156 -9148.8000 -7394.4151 300.5086 -433.8526 -424.4676 30391.6456 4.7937 48.9030
ENERGY: 600000 5.1459 22.6031 21.2286 0.0000 -10746.9340 1487.1613 0.0000 0.0000 1796.1749 -7414.6202 307.2841 -9210.7951 -7404.7766 302.3180 210.4285 280.2592 30332.9466 39.6432 90.4874
ENERGY: 900000 9.4048 17.1368 19.5344 0.0000 -10664.3198 1488.6865 0.0000 0.0000 1810.8873 -7318.6700 309.8011 -9129.5574 -7386.2817 304.2288 662.3172 694.8796 30362.5718 -56.1556 -2.0587
ENERGY: 1200000 6.1594 22.9067 20.1383 0.0000 -10661.0650 1439.5374 0.0000 0.0000 1776.0287 -7396.2945 303.8376 -9172.3232 -7400.1137 303.2011 412.9439 410.4382 29862.5852 -32.4070 13.9527
ENERGY: 1500000 5.2221 17.7965 19.6150 0.0000 -10652.4709 1414.2944 0.0000 0.0000 1763.9685 -7431.5744 301.7744 -9195.5429 -7396.6240 302.5194 -181.5192 -84.8036 30528.5931 -27.2362 28.0319
TCL: Running FEP window   9: Lambda1 0.5999999999999996 Lambda2 0.5499999999999996 [dLambda -0.050000000000000044]
TCL: Setting parameter firsttimestep to 0
TCL: Setting parameter alchLambda to 0.5999999999999996
Info: NONBONDED TABLE R-SQUARED SPACING: 0.0625
Info: NONBONDED TABLE SIZE: 705 POINTS
TCL: Setting parameter alchLambda2 to 0.5499999999999996
Info: NONBONDED TABLE R-SQUARED SPACING: 0.0625
Info: NONBONDED TABLE SIZE: 705 POINTS
TCL: Running for 1500000 steps
ETITLE: TS BOND ANGLE DIHED IMPRP ELECT VDW BOUNDARY MISC KINETIC TOTAL TEMP POTENTIAL TOTALAVG TEMPAVG PRESSURE GPRESSURE VOLUME PRESSAVG GPRESSAVG
ENERGY: 0 5.2221 17.7965 19.6150 0.0000 -10651.2358 1414.6384 0.0000 0.0000 1763.0786 -7430.8852 301.6221 -9193.9638 -7430.8852 301.6221 -184.0639 -97.2677 30528.5931 -184.0639 -97.2677
ENERGY: 300000 6.4696 17.7190 18.8220 0.0000 -10670.0633 1471.0794 0.0000 0.0000 1771.9712 -7384.0019 303.1435 -9155.9732 -7397.3325 300.7629 79.2852 179.5924 30271.0798 29.4254 115.2422
ENERGY: 600000 7.2192 20.2896 19.8724 0.0000 -10642.3447 1456.4424 0.0000 0.0000 1707.8416 -7430.6795 292.1724 -9138.5210 -7419.2615 298.0861 498.3572 609.9992 30057.5961 29.9996 116.7758
ENERGY: 900000 6.8701 20.7532 18.3576 0.0000 -10706.1359 1468.7536 0.0000 0.0000 1801.3416 -7390.0598 308.1681 -9191.4014 -7409.6953 300.1882 248.8742 303.6336 30034.3311 14.5571 88.8050
ENERGY: 1200000 5.7733 19.0997 20.6740 0.0000 -10477.2258 1311.2996 0.0000 0.0000 1747.6746 -7372.7046 298.9869 -9120.3792 -7404.4962 300.6382 -641.5679 -614.9544 30427.6971 -44.1189 34.8857
ENERGY: 1500000 5.2543 17.1028 20.6379 0.0000 -10575.3842 1443.9984 0.0000 0.0000 1764.6865 -7323.7043 301.8972 -9088.3908 -7398.4051 300.6018 649.1619 773.2215 29949.9983 18.0987 100.3485
TCL: Running FEP window  10: Lambda1 0.5499999999999996 Lambda2 0.4999999999999996 [dLambda -0.04999999999999999]
TCL: Setting parameter firsttimestep to 0
TCL: Setting parameter alchLambda to 0.5499999999999996
Info: NONBONDED TABLE R-SQUARED SPACING: 0.0625
Info: NONBONDED TABLE SIZE: 705 POINTS
TCL: Setting parameter alchLambda2 to 0.4999999999999996
Info: NONBONDED TABLE R-SQUARED SPACING: 0.0625
Info: NONBONDED TABLE SIZE: 705 POINTS
TCL: Running for 1500000 steps
ETITLE: TS BOND ANGLE DIHED IMPRP ELECT VDW BOUNDARY MISC KINETIC TOTAL TEMP POTENTIAL TOTALAVG TEMPAVG PRESSURE GPRESSURE VOLUME PRESSAVG GPRESSAVG
ENERGY: 0 5.2543 17.1028 20.6379 0.0000 -10574.4706 1445.3327 0.0000 0.0000 1763.8565 -7322.2864 301.7552 -9086.1429 -7322.2864 301.7552 683.2024 770.9605 29949.9983 683.2024 770.9605
ENERGY: 300000 6.5118 15.2927 21.9947 0.0000 -10712.7161 1465.0432 0.0000 0.0000 1749.3556 -7454.5181 299.2744 -9203.8736 -7414.6592 299.1075 314.1105 348.2735 30163.8095 490.8497 561.3583
ENERGY: 600000 9.1089 22.2889 18.2958 0.0000 -10590.1857 1374.2433 0.0000 0.0000 1735.8481 -7430.4008 296.9636 -9166.2488 -7443.9868 296.7498 -50.5884 -29.2594 30237.1668 110.0641 171.0424
ENERGY: 900000 3.6314 19.5729 19.0820 0.0000 -10700.9596 1458.5617 0.0000 0.0000 1799.2272 -7400.8844 307.8063 -9200.1116 -7433.1400 298.6292 226.9911 208.7702 30560.2177 40.9802 106.9554
ENERGY: 1200000 4.7003 22.3845 19.5855 0.0000 -10750.9518 1478.4461 0.0000 0.0000 1808.5428 -7417.2925 309.4000 -9225.8353 -7435.6770 299.6889 299.2199 311.9454 29977.2796 -22.7413 40.7963
ENERGY: 1500000 5.5634 16.8352 19.4709 0.0000 -10653.0858 1421.0546 0.0000 0.0000 1773.0478 -7417.1140 303.3276 -9190.1618 -7436.8920 299.5908 -158.9011 -62.1959 30260.8180 -55.8465 9.4251
TCL: Running FEP window  11: Lambda1 0.4999999999999996 Lambda2 0.4499999999999996 [dLambda -0.04999999999999999]
TCL: Setting parameter firsttimestep to 0
TCL: Setting parameter alchLambda to 0.4999999999999996
Info: NONBONDED TABLE R-SQUARED SPACING: 0.0625
Info: NONBONDED TABLE SIZE: 705 POINTS
TCL: Setting parameter alchLambda2 to 0.4499999999999996
Info: NONBONDED TABLE R-SQUARED SPACING: 0.0625
Info: NONBONDED TABLE SIZE: 705 POINTS
TCL: Running for 1500000 steps
ETITLE: TS BOND ANGLE DIHED IMPRP ELECT VDW BOUNDARY MISC KINETIC TOTAL TEMP POTENTIAL TOTALAVG TEMPAVG PRESSURE GPRESSURE VOLUME PRESSAVG GPRESSAVG
ENERGY: 0 5.5634 16.8352 19.4709 0.0000 -10652.1997 1421.7535 0.0000 0.0000 1772.2161 -7416.3606 303.1854 -9188.5767 -7416.3606 303.1854 -157.0572 -69.5840 30260.8180 -157.0572 -69.5840
ENERGY: 300000 6.2115 17.8049 20.0459 0.0000 -10698.7277 1428.4206 0.0000 0.0000 1786.8344 -7439.4104 305.6862 -9226.2448 -7418.7078 303.4172 -114.5110 -60.9007 30137.5200 -116.0175 -50.9789
ENERGY: 600000 8.5143 18.9815 19.6594 0.0000 -10716.5865 1481.8195 0.0000 0.0000 1791.6298 -7395.9821 306.5066 -9187.6119 -7412.4372 302.7055 759.4418 791.0638 30139.8227 -87.9263 -31.8167
ENERGY: 900000 6.7112 16.5264 22.5316 0.0000 -10675.7761 1417.2979 0.0000 0.0000 1726.7734 -7485.9356 295.4111 -9212.7090 -7413.5222 301.8049 -313.4973 -192.5993 29879.1766 -196.3723 -128.2745
ENERGY: 1200000 8.4331 17.7240 20.7910 0.0000 -10779.8159 1543.9860 0.0000 0.0000 1722.9781 -7465.9037 294.7619 -9188.8818 -7419.4059 300.6542 1137.7495 1214.8446 30133.6679 -102.8622 -34.7851
ENERGY: 1500000 6.1066 20.9616 22.6260 0.0000 -10603.0302 1445.2043 0.0000 0.0000 1744.7797 -7363.3521 298.4916 -9108.1318 -7408.8816 300.2787 -96.3978 41.0240 30231.2716 -156.5827 -86.0248
TCL: Running FEP window  12: Lambda1 0.4499999999999996 Lambda2 0.39999999999999963 [dLambda -0.04999999999999999]
TCL: Setting parameter firsttimestep to 0
TCL: Setting parameter alchLambda to 0.4499999999999996
Info: NONBONDED TABLE R-SQUARED SPACING: 0.0625
Info: NONBONDED TABLE SIZE: 705 POINTS
TCL: Setting parameter alchLambda2 to 0.39999999999999963
Info: NONBONDED TABLE R-SQUARED SPACING: 0.0625
Info: NONBONDED TABLE SIZE: 705 POINTS
TCL: Running for 1500000 steps
ETITLE: TS BOND ANGLE DIHED IMPRP ELECT VDW BOUNDARY MISC KINETIC TOTAL TEMP POTENTIAL TOTALAVG TEMPAVG PRESSURE GPRESSURE VOLUME PRESSAVG GPRESSAVG
ENERGY: 0 6.1066 20.9616 22.6260 0.0000 -10603.0293 1445.9592 0.0000 0.0000 1743.9679 -7363.4080 298.3527 -9107.3760 -7363.4080 298.3527 -51.4845 37.3529 30231.2716 -51.4845 37.3529
ENERGY: 300000 5.1224 17.2605 21.3314 0.0000 -10659.0396 1383.2915 0.0000 0.0000 1737.3845 -7494.6492 297.2265 -9232.0337 -7422.4633 299.9086 -292.0853 -227.9198 29728.4278 -100.1755 -22.7085
ENERGY: 600000 7.2161 23.6894 20.0146 0.0000 -10618.1576 1411.0220 0.0000 0.0000 1773.9223 -7382.2932 303.4772 -9156.2155 -7431.6263 301.6797 25.2951 67.8995 30022.7099 -248.1465 -175.1690
ENERGY: 900000 6.7651 21.5098 20.6970 0.0000 -10591.4215 1377.2835 0.0000 0.0000 1690.4317 -7474.7344 289.1939 -9165.1661 -7434.3250 299.4547 -564.7608 -477.0674 30203.8815 -291.3473 -215.2692
ENERGY: 1200000 8.1446 22.3864 18.8625 0.0000 -10640.4806 1432.9094 0.0000 0.0000 1813.0204 -7345.1573 310.1660 -9158.1777 -7436.8966 300.8822 161.2772 192.7109 30189.7327 -106.6742 -39.1924
ENERGY: 1500000 6.1928 23.8110 18.7054 0.0000 -10737.5724 1449.3837 0.0000 0.0000 1811.6473 -7427.8321 309.9311 -9239.4794 -7435.5637 300.6536 -10.8176 58.7040 30047.1718 -23.1943 39.8155
TCL: Running FEP window  13: Lambda1 0.39999999999999963 Lambda2 0.34999999999999964 [dLambda -0.04999999999999999]
TCL: Setting parameter firsttimestep to 0
TCL: Setting parameter alchLambda to 0.39999999999999963
Info: NONBONDED TABLE R-SQUARED SPACING: 0.0625
Info: NONBONDED TABLE SIZE: 705 POINTS
TCL: Setting parameter alchLambda2 to 0.34999999999999964
Info: NONBONDED TABLE R-SQUARED SPACING: 0.0625
Info: NONBONDED TABLE SIZE: 705 POINTS
TCL: Running for 1500000 steps
ETITLE: TS BOND ANGLE DIHED IMPRP ELECT VDW BOUNDARY MISC KINETIC TOTAL TEMP POTENTIAL TOTALAVG TEMPAVG PRESSURE GPRESSURE VOLUME PRESSAVG GPRESSAVG
ENERGY: 0 6.1928 23.8110 18.7054 0.0000 -10737.5721 1450.3085 0.0000 0.0000 1810.7841 -7427.7702 309.7835 -9238.5544 -7427.7702 309.7835 -21.1066 56.4710 30047.1718 -21.1066 56.4710
ENERGY: 300000 6.8692 17.9449 20.4137 0.0000 -10637.2786 1440.5067 0.0000 0.0000 1745.7791 -7405.7650 298.6626 -9151.5441 -7445.1600 298.2735 126.4010 137.8096 30335.5829 -65.6102 10.5719
ENERGY: 600000 6.2265 21.2417 19.5255 0.0000 -10581.0649 1434.6895 0.0000 0.0000 1744.7602 -7354.6215 298.4883 -9099.3817 -7446.0524 299.6861 -49.2695 75.9984 30145.7888 -32.5505 46.0586
ENERGY: 900000 7.5847 18.8555 19.2087 0.0000 -10698.9153 1474.4119 0.0000 0.0000 1738.3812 -7440.4732 297.3970 -9178.8545 -7433.5969 299.3215 762.1760 776.3645 29961.4699 -20.0705 49.1826
ENERGY: 1200000 5.2637 19.0423 18.6494 0.0000 -10680.6215 1415.7914 0.0000 0.0000 1742.4620 -7479.4126 298.0951 -9221.8746 -7439.7494 299.6741 -109.1740 -36.7376 29962.2009 -6.2229 67.0056
ENERGY: 1500000 6.2462 17.7863 18.7541 0.0000 -10640.0969 1436.7362 0.0000 0.0000 1675.9003 -7484.6738 286.7079 -9160.5741 -7436.3628 298.8463 -54.5205 13.2917 30124.9535 38.3874 107.4558
TCL: Running FEP window  14: Lambda1 0.34999999999999964 Lambda2 0.29999999999999966 [dLambda -0.04999999999999999]
TCL: Setting parameter firsttimestep to 0
TCL: Setting parameter alchLambda to 0.34999999999999964
Info: NONBONDED TABLE R-SQUARED SPACING: 0.0625
Info: NONBONDED TABLE SIZE: 705 POINTS
TCL: Setting parameter alchLambda2 to 0.29999999999999966
Info: NONBONDED TABLE R-SQUARED SPACING: 0.0625
Info: NONBONDED TABLE SIZE: 705 POINTS
TCL: Running for 1500000 steps
ETITLE: TS BOND ANGLE DIHED IMPRP ELECT VDW BOUNDARY MISC KINETIC TOTAL TEMP POTENTIAL TOTALAVG TEMPAVG PRESSURE GPRESSURE VOLUME PRESSAVG GPRESSAVG
ENERGY: 0 6.2462 17.7863 18.7541 0.0000 -10640.0970 1437.5225 0.0000 0.0000 1675.0349 -7484.7530 286.5599 -9159.7878 -7484.7530 286.5599 -74.2535 7.6032 30124.9535 -74.2535 7.6032
ENERGY: 300000 7.7464 22.5552 21.5474 0.0000 -10629.5066 1396.1523 0.0000 0.0000 1747.5691 -7433.9363 298.9688 -9181.5054 -7466.9498 295.6539 -112.9512 -40.7445 30075.5123 24.0141 81.4382
ENERGY: 600000 4.8544 21.2154 19.3698 0.0000 -10725.1615 1468.0402 0.0000 0.0000 1782.5676 -7429.1142 304.9563 -9211.6817 -7449.0895 297.3272 181.7469 285.0873 30228.7051 57.7727 109.7161
ENERGY: 900000 7.7693 18.0653 24.3569 0.0000 -10614.2327 1391.9559 0.0000 0.0000 1751.1411 -7420.9441 299.5799 -9172.0852 -7448.6415 298.4484 -232.8555 -180.4203 30057.6892 94.5911 142.2029
ENERGY: 1200000 5.6867 17.3457 23.7064 0.0000 -10650.6406 1385.3980 0.0000 0.0000 1808.7907 -7409.7131 309.4424 -9218.5038 -7436.2108 300.5162 -621.1040 -491.1302 30378.7162 94.7440 155.9350
ENERGY: 1500000 8.5590 15.8591 18.0491 0.0000 -10504.7241 1365.6030 0.0000 0.0000 1818.9707 -7277.6832 311.1840 -9096.6539 -7424.1309 300.7563 -31.7179 65.9554 30051.7427 64.6746 131.1074
TCL: Running FEP window  15: Lambda1 0.29999999999999966 Lambda2 0.24999999999999967 [dLambda -0.04999999999999999]
TCL: Setting parameter firsttimestep to 0
TCL: Setting parameter alchLambda to 0.29999999999999966
Info: NONBONDED TABLE R-SQUARED SPACING: 0.0625
Info: NONBONDED TABLE SIZE: 705 POINTS
TCL: Setting parameter alchLambda2 to 0.24999999999999967
Info: NONBONDED TABLE R-SQUARED SPACING: 0.0625
Info: NONBONDED TABLE SIZE: 705 POINTS
TCL: Running for 1500000 steps
ETITLE: TS BOND ANGLE DIHED IMPRP ELECT VDW BOUNDARY MISC KINETIC TOTAL TEMP POTENTIAL TOTALAVG TEMPAVG PRESSURE GPRESSURE VOLUME PRESSAVG GPRESSAVG
ENERGY: 0 8.5590 15.8591 18.0491 0.0000 -10504.7238 1366.6221 0.0000 0.0000 1818.0869 -7277.5475 311.0328 -9095.6345 -7277.5475 311.0328 -17.9816 62.5647 30051.7427 -17.9816 62.5647
ENERGY: 300000 7.1954 27.5415 20.9401 0.0000 -10650.9743 1426.0790 0.0000 0.0000 1821.6552 -7347.5631 311.6432 -9169.2183 -7349.3224 305.8467 50.9318 107.7775 29939.3487 -52.6286 0.7849
ENERGY: 600000 4.9557 18.7380 17.9299 0.0000 -10757.4226 1501.2607 0.0000 0.0000 1773.9999 -7440.5384 303.4905 -9214.5382 -7384.1189 302.4017 757.8925 850.4536 29565.2896 -47.1287 -2.2082
ENERGY: 900000 4.3403 19.7829 20.9626 0.0000 -10438.2363 1251.4667 0.0000 0.0000 1797.9189 -7343.7649 307.5825 -9141.6839 -7393.1511 301.3572 -1647.9436 -1640.0712 30861.1349 -129.0862 -94.8218
ENERGY: 1200000 6.0976 21.7048 18.2420 0.0000 -10712.3440 1478.3343 0.0000 0.0000 1721.8048 -7466.1605 294.5611 -9187.9653 -7399.8294 300.9817 297.2860 374.2068 29779.2859 -98.9176 -63.1180
ENERGY: 1500000 10.4851 18.4357 21.7223 0.0000 -10626.6582 1447.0642 0.0000 0.0000 1691.5588 -7437.3922 289.3867 -9128.9510 -7404.6260 300.5183 -122.3547 -61.2345 30005.8284 -78.7227 -32.7821
TCL: Running FEP window  16: Lambda1 0.24999999999999967 Lambda2 0.19999999999999968 [dLambda -0.04999999999999999]
TCL: Setting parameter firsttimestep to 0
TCL: Setting parameter alchLambda to 0.24999999999999967
Info: NONBONDED TABLE R-SQUARED SPACING: 0.0625
Info: NONBONDED TABLE SIZE: 705 POINTS
TCL: Setting parameter alchLambda2 to 0.19999999999999968
Info: NONBONDED TABLE R-SQUARED SPACING: 0.0625
Info: NONBONDED TABLE SIZE: 705 POINTS
TCL: Running for 1500000 steps
ETITLE: TS BOND ANGLE DIHED IMPRP ELECT VDW BOUNDARY MISC KINETIC TOTAL TEMP POTENTIAL TOTALAVG TEMPAVG PRESSURE GPRESSURE VOLUME PRESSAVG GPRESSAVG
ENERGY: 0 10.4851 18.4357 21.7223 0.0000 -10626.6589 1448.1152 0.0000 0.0000 1690.6916 -7437.2090 289.2384 -9127.9006 -7437.2090 289.2384 -155.3753 -65.3940 30005.8284 -155.3753 -65.3940
ENERGY: 300000 3.4144 13.5100 19.5671 0.0000 -10599.6916 1381.9223 0.0000 0.0000 1763.2647 -7418.0132 301.6540 -9181.2779 -7447.3770 297.6177 -343.9529 -279.0602 29953.4645 144.4682 228.0745
ENERGY: 600000 10.8229 24.0961 18.1994 0.0000 -10729.8659 1474.4303 0.0000 0.0000 1750.4002 -7451.9169 299.4532 -9202.3172 -7441.8840 298.6782 156.0709 217.7356 29883.5549 -79.2010 -9.7461
ENERGY: 900000 3.4667 19.7958 18.2488 0.0000 -10711.0704 1424.6894 0.0000 0.0000 1700.4423 -7544.4275 290.9065 -9244.8698 -7457.3370 297.1438 -277.8186 -187.7854 29778.6875 -58.9534 12.5227
ENERGY: 1200000 4.9041 15.6783 18.6371 0.0000 -10657.3313 1460.7495 0.0000 0.0000 1705.2846 -7452.0776 291.7349 -9157.3622 -7445.2441 297.8553 322.1310 294.8698 30150.9176 -54.5444 11.4016
ENERGY: 1500000 7.3434 17.0212 17.5461 0.0000 -10612.5616 1361.1338 0.0000 0.0000 1749.0288 -7460.4884 299.2185 -9209.5172 -7443.6491 298.3246 -549.7142 -427.4951 29571.1562 -8.3861 59.0590
TCL: Running FEP window  17: Lambda1 0.19999999999999968 Lambda2 0.1499999999999997 [dLambda -0.04999999999999999]
TCL: Setting parameter firsttimestep to 0
TCL: Setting parameter alchLambda to 0.19999999999999968
Info: NONBONDED TABLE R-SQUARED SPACING: 0.0625
Info: NONBONDED TABLE SIZE: 705 POINTS
TCL: Setting parameter alchLambda2 to 0.1499999999999997
Info: NONBONDED TABLE R-SQUARED SPACING: 0.0625
Info: NONBONDED TABLE SIZE: 705 POINTS
TCL: Running for 1500000 steps
ETITLE: TS BOND ANGLE DIHED IMPRP ELECT VDW BOUNDARY MISC KINETIC TOTAL TEMP POTENTIAL TOTALAVG TEMPAVG PRESSURE GPRESSURE VOLUME PRESSAVG GPRESSAVG
ENERGY: 0 7.3434 17.0212 17.5461 0.0000 -10612.5595 1362.2097 0.0000 0.0000 1748.1431 -7460.2960 299.0670 -9208.4391 -7460.2960 299.0670 -501.6878 -426.8894 29571.1562 -501.6878 -426.8894
ENERGY: 300000 5.8320 19.5019 18.3883 0.0000 -10590.6626 1422.9560 0.0000 0.0000 1793.8767 -7330.1077 306.8910 -9123.9844 -7406.6500 301.4052 353.3228 390.5718 29896.1605 95.9064 137.8081
ENERGY: 600000 8.2628 19.8831 22.1472 0.0000 -10556.7101 1455.1693 0.0000 0.0000 1735.5861 -7315.6617 296.9188 -9051.2478 -7398.1299 300.4460 478.3140 532.6637 29876.0026 -100.1799 -49.8720
ENERGY: 900000 4.2839 19.8262 18.7679 0.0000 -10787.7848 1525.2520 0.0000 0.0000 1748.2842 -7471.3706 299.0912 -9219.6548 -7412.3797 301.0891 684.6548 744.1154 29751.5990 62.0763 117.2422
ENERGY: 1200000 6.1552 20.4285 20.9003 0.0000 -10640.4534 1435.0517 0.0000 0.0000 1757.9405 -7399.9771 300.7431 -9157.9176 -7409.7358 301.5624 -287.6955 -247.7335 30569.6148 4.9827 61.8939
ENERGY: 1500000 6.7490 18.1494 18.8646 0.0000 -10596.0661 1454.8814 0.0000 0.0000 1733.5370 -7363.8847 296.5682 -9097.4217 -7412.0792 300.4555 745.6335 818.7328 29977.1883 -18.0718 38.6548
TCL: Running FEP window  18: Lambda1 0.1499999999999997 Lambda2 0.09999999999999969 [dLambda -0.05 ]
TCL: Setting parameter firsttimestep to 0
TCL: Setting parameter alchLambda to 0.1499999999999997
Info: NONBONDED TABLE R-SQUARED SPACING: 0.0625
Info: NONBONDED TABLE SIZE: 705 POINTS
TCL: Setting parameter alchLambda2 to 0.09999999999999969
Info: NONBONDED TABLE R-SQUARED SPACING: 0.0625
Info: NONBONDED TABLE SIZE: 705 POINTS
TCL: Running for 1500000 steps
ETITLE: TS BOND ANGLE DIHED IMPRP ELECT VDW BOUNDARY MISC KINETIC TOTAL TEMP POTENTIAL TOTALAVG TEMPAVG PRESSURE GPRESSURE VOLUME PRESSAVG GPRESSAVG
ENERGY: 0 6.7490 18.1494 18.8646 0.0000 -10596.0670 1455.0521 0.0000 0.0000 1732.6693 -7364.5826 296.4198 -9097.2519 -7364.5826 296.4198 725.1195 811.7275 29977.1883 725.1195 811.7275
ENERGY: 300000 6.4027 16.5527 20.7369 0.0000 -10580.8301 1402.4152 0.0000 0.0000 1718.9638 -7415.7588 294.0751 -9134.7226 -7419.9637 298.1820 -281.2366 -190.6712 30273.5895 165.0241 251.4100
ENERGY: 600000 9.6225 18.3560 19.2202 0.0000 -10648.7485 1388.3429 0.0000 0.0000 1760.1254 -7453.0815 301.1169 -9213.2069 -7429.7643 298.3390 -460.8572 -352.6415 29888.1373 14.5513 99.7991
ENERGY: 900000 8.9541 18.8136 19.7107 0.0000 -10730.9353 1539.3049 0.0000 0.0000 1769.0866 -7375.0654 302.6500 -9144.1520 -7415.4502 299.6452 810.8530 827.2676 30511.7058 65.9365 141.0474
ENERGY: 1200000 5.0923 22.7395 21.5467 0.0000 -10679.0753 1509.6414 0.0000 0.0000 1713.5751 -7406.4803 293.1532 -9120.0554 -7414.8795 300.2125 978.5868 1010.3608 29714.5020 64.6168 126.7977
ENERGY: 1500000 7.3934 20.0217 16.7594 0.0000 -10619.2476 1410.1640 0.0000 0.0000 1792.6815 -7372.2277 306.6865 -9164.9092 -7405.5304 301.0847 -160.9192 -70.5921 29922.7923 38.1463 103.1877
TCL: Running FEP window  19: Lambda1 0.09999999999999969 Lambda2 0.049999999999999684 [dLambda -0.05 ]
TCL: Setting parameter firsttimestep to 0
TCL: Setting parameter alchLambda to 0.09999999999999969
Info: NONBONDED TABLE R-SQUARED SPACING: 0.0625
Info: NONBONDED TABLE SIZE: 705 POINTS
TCL: Setting parameter alchLambda2 to 0.049999999999999684
Info: NONBONDED TABLE R-SQUARED SPACING: 0.0625
Info: NONBONDED TABLE SIZE: 705 POINTS
TCL: Running for 1500000 steps
ETITLE: TS BOND ANGLE DIHED IMPRP ELECT VDW BOUNDARY MISC KINETIC TOTAL TEMP POTENTIAL TOTALAVG TEMPAVG PRESSURE GPRESSURE VOLUME PRESSAVG GPRESSAVG
ENERGY: 0 7.3934 20.0217 16.7594 0.0000 -10619.2472 1410.0577 0.0000 0.0000 1791.8296 -7373.1854 306.5408 -9165.0150 -7373.1854 306.5408 -171.9144 -76.6249 29922.7923 -171.9144 -76.6249
ENERGY: 300000 12.2653 16.7698 21.0153 0.0000 -10752.4824 1466.7182 0.0000 0.0000 1767.5529 -7468.1610 302.3876 -9235.7139 -7413.2623 302.4248 39.1021 69.4402 29549.9971 -112.2792 -39.9898
ENERGY: 600000 4.8055 18.3547 22.3319 0.0000 -10736.2018 1415.0045 0.0000 0.0000 1742.3988 -7533.3064 298.0843 -9275.7052 -7428.8037 299.4623 -571.0778 -516.0775 30316.3590 -86.8635 -15.7587
ENERGY: 900000 2.4827 18.2951 19.7078 0.0000 -10708.0470 1405.0798 0.0000 0.0000 1773.7387 -7488.7430 303.4458 -9262.4816 -7441.5531 300.5132 -360.3722 -226.4544 29701.1639 -96.6617 -14.0937
ENERGY: 1200000 5.2197 18.7390 21.4672 0.0000 -10685.3810 1436.7253 0.0000 0.0000 1791.7400 -7411.4898 306.5254 -9203.2298 -7434.7693 301.0568 -119.0372 -81.4687 30095.8585 2.3962 80.2919
ENERGY: 1500000 11.4709 16.7956 15.9260 0.0000 -10680.5124 1464.3576 0.0000 0.0000 1761.7276 -7410.2346 301.3910 -9171.9622 -7429.8057 301.3912 294.8466 350.0367 29846.2627 15.4090 87.7770
TCL: Running FEP window  20: Lambda1 0.049999999999999684 Lambda2 0.0    [dLambda -0.049999999999999684]
TCL: Setting parameter firsttimestep to 0
TCL: Setting parameter alchLambda to 0.049999999999999684
Info: NONBONDED TABLE R-SQUARED SPACING: 0.0625
Info: NONBONDED TABLE SIZE: 705 POINTS
TCL: Setting parameter alchLambda2 to 0.0
Info: NONBONDED TABLE R-SQUARED SPACING: 0.0625
Info: NONBONDED TABLE SIZE: 705 POINTS
TCL: Running for 1500000 steps
ETITLE: TS BOND ANGLE DIHED IMPRP ELECT VDW BOUNDARY MISC KINETIC TOTAL TEMP POTENTIAL TOTALAVG TEMPAVG PRESSURE GPRESSURE VOLUME PRESSAVG GPRESSAVG
ENERGY: 0 11.4710 16.7956 15.9260 0.0000 -10680.5134 1463.2339 0.0000 0.0000 1760.8551 -7412.2318 301.2418 -9173.0869 -7412.2318 301.2418 264.2551 342.3415 29846.2627 264.2551 342.3415
ENERGY: 300000 2.9459 20.7695 21.1559 0.0000 -10622.7254 1455.2715 0.0000 0.0000 1757.8637 -7364.7189 300.7300 -9122.5826 -7442.0715 299.2747 225.7749 319.4084 30159.6868 -108.5141 -36.8098
ENERGY: 600000 5.3360 18.6398 22.0777 0.0000 -10727.7626 1448.5027 0.0000 0.0000 1807.6076 -7425.5988 309.2400 -9233.2064 -7428.6650 301.2290 -151.9878 -117.2306 30297.3274 18.0025 67.5371
ENERGY: 900000 5.9904 19.8486 20.2667 0.0000 -10625.6718 1418.0000 0.0000 0.0000 1796.9706 -7364.5955 307.4203 -9161.5661 -7424.3025 302.0872 363.7255 412.6128 29470.1363 40.5596 92.7422
ENERGY: 1200000 6.2991 16.4983 18.2721 0.0000 -10683.0028 1450.5720 0.0000 0.0000 1739.3162 -7452.0451 297.5569 -9191.3613 -7428.1855 300.4568 66.6252 152.6697 29851.1606 68.8232 130.9833
ENERGY: 1500000 5.3076 17.3436 19.4972 0.0000 -10578.4969 1350.4506 0.0000 0.0000 1698.0711 -7487.8268 290.5008 -9185.8979 -7428.2861 300.0145 -730.4340 -702.6849 30156.0894 21.9555 80.8637
TCL: Exiting due to exit command.
