Info: SIMULATION PARAMETERS:
Info: TIMESTEP               2
Info: NUMBER OF STEPS        0
Info: STEPS PER CYCLE        10
Info: PERIODIC CELL BASIS 1  31.65 0 0
Info: PERIODIC CELL BASIS 2  0 31.0013 0
Info: PERIODIC CELL BASIS 3  0 0 30.7262
Info: PERIODIC CELL CENTER   0 0 0
Info: WRAPPING WATERS AROUND PERIODIC BOUNDARIES ON OUTPUT.
Info: WRAPPING ALL CLUSTERS AROUND PERIODIC BOUNDARIES ON OUTPUT.
Info: FIRST LDB TIMESTEP     50
Info: LAST LDB TIMESTEP     -1
Info: HOM BACKGROUND SCALING 1
Info: PME BACKGROUND SCALING 1
Info: MIN ATOMS PER PATCH    40
Info: EMPTY PATCH LOAD       40 ATOMS
Info: VELOCITY FILE          mobley_36119_equil.vel
Info: CENTER OF MASS MOVING INITIALLY? NO
Info: DIELECTRIC             1
Info: EXCLUDE                SCALED ONE-FOUR
Info: 1-4 ELECTROSTATICS SCALED BY 0.833333
Info: MODIFIED 1-4 VDW PARAMETERS WILL BE USED
Info: DCD FILENAME           mobley_36119_prod.dcd
Info: DCD FREQUENCY          100000
Info: DCD FIRST STEP         100000
Info: DCD FILE WILL CONTAIN UNIT CELL DATA
Info: XST FILENAME           mobley_36119_prod.xst
Info: XST FREQUENCY          100000
Info: NO VELOCITY DCD OUTPUT
Info: NO FORCE DCD OUTPUT
Info: OUTPUT FILENAME        mobley_36119_prod
Info: BINARY OUTPUT FILES WILL BE USED
Info: RESTART FILENAME       mobley_36119_prod.restart
Info: RESTART FREQUENCY      100000
Info: BINARY RESTART FILES WILL BE USED
Info: CUTOFF                 9
Info: PAIRLIST DISTANCE      11
Info: PAIRLIST SHRINK RATE   0.01
Info: PAIRLIST GROW RATE     0.01
Info: PAIRLIST TRIGGER       0.3
Info: PAIRLISTS PER CYCLE    2
Info: PAIRLISTS ENABLED
Info: MARGIN                 2
Info: HYDROGEN GROUP CUTOFF  2.5
Info: PATCH DIMENSION        15.5
Info: ENERGY OUTPUT STEPS    100000
Info: ENERGY EVALUATION STEPS    100000
Info: OUTPUT ENERGY PRECISION 4
Info: CROSSTERM ENERGY INCLUDED IN DIHEDRAL
Info: TIMING OUTPUT STEPS    1000000
Info: PRESSURE OUTPUT STEPS  100000
Info: ALCHEMICAL FEP ON
Info: FEP CURRENT LAMBDA VALUE     1
Info: FEP COMPARISON LAMBDA VALUE  0.95
Info: FEP INTRA-ALCHEMICAL NON-BONDED INTERACTIONS WILL BE RETAINED
Info: FEP INTRA-ALCHEMICAL BONDED INTERACTIONS WILL BE RETAINED
Info: FEP VDW SHIFTING COEFFICIENT 5
Info: FEP ELEC. ACTIVE FOR ANNIHILATED PARTICLES BETWEEN LAMBDA = 0 AND LAMBDA = 0.5
Info: FEP ELEC. ACTIVE FOR EXNIHILATED PARTICLES BETWEEN LAMBDA = 0.5 AND LAMBDA = 1
Info: FEP VDW ACTIVE FOR ANNIHILATED PARTICLES BETWEEN LAMBDA = 0 AND LAMBDA = 1
Info: FEP VDW ACTIVE FOR EXNIHILATED PARTICLES BETWEEN LAMBDA = 0 AND LAMBDA = 1
Info: FEP BOND ACTIVE FOR ANNIHILATED PARTICLES BETWEEN LAMBDA = 1 AND LAMBDA = 1
Info: FEP BOND ACTIVE FOR EXNIHILATED PARTICLES BETWEEN LAMBDA = 0 AND LAMBDA = 0
Info: LANGEVIN DYNAMICS ACTIVE
Info: LANGEVIN TEMPERATURE   300
Info: LANGEVIN USING BBK INTEGRATOR
Info: LANGEVIN DAMPING COEFFICIENT IS 1 INVERSE PS
Info: LANGEVIN DYNAMICS APPLIED TO HYDROGENS
Info: LANGEVIN PISTON PRESSURE CONTROL ACTIVE
Info:        TARGET PRESSURE IS 1.01325 BAR
Info:     OSCILLATION PERIOD IS 50 FS
Info:             DECAY TIME IS 25 FS
Info:     PISTON TEMPERATURE IS 300 K
Info:       PRESSURE CONTROL IS GROUP-BASED
Info:    INITIAL STRAIN RATE IS -0.000553183 -0.000553183 -0.000553183
Info:       CELL FLUCTUATION IS ISOTROPIC
Info: PARTICLE MESH EWALD (PME) ACTIVE
Info: PME TOLERANCE               1e-06
Info: PME EWALD COEFFICIENT       0.348832
Info: PME INTERPOLATION ORDER     4
Info: PME GRID DIMENSIONS         32 32 32
Info: PME MAXIMUM GRID SPACING    1
Info: PME CALCULATION WILL BE PERFORMED ON GPU
Info: FULL ELECTROSTATIC EVALUATION FREQUENCY      2
Info: USING VERLET I (r-RESPA) MTS SCHEME.
Info: C1 SPLITTING OF LONG RANGE ELECTROSTATICS
Info: PLACING ATOMS IN PATCHES BY HYDROGEN GROUPS
Info: RIGID BONDS TO HYDROGEN : ALL
Info:         ERROR TOLERANCE : 1e-08
Info:          MAX ITERATIONS : 100
Info: RIGID WATER USING SETTLE ALGORITHM
Info: RANDOM NUMBER SEED     1744069543
Info: USE HYDROGEN BONDS?    NO
Info: Using AMBER format force field!
Info: AMBER PARM FILE        mobley_36119.prmtop
Info: COORDINATE PDB         mobley_36119.pdb
Info: Exclusions will be read from PARM file!
Info: SCNB (VDW SCALING)     2
Info: USING ARITHMETIC MEAN TO COMBINE L-J SIGMA PARAMETERS
Info: BINARY COORDINATES     mobley_36119_equil.coor
Info: SUMMARY OF PARAMETERS:
Info: 7 BONDS
Info: 8 ANGLES
Info:   8 HARMONIC
Info:   0 COSINE-BASED
Info: 9 DIHEDRAL
Info: 0 IMPROPER
Info: 0 CROSSTERM
Info: 0 VDW
Info: 21 VDW_PAIRS
Info: 0 NBTHOLE_PAIRS
Info: To read alchdata from file: mobley_36119.pdb
Info: To read alchflag data from column: 5
Info: STRUCTURE SUMMARY:
Info: 2916 ATOMS
Info: 2915 BONDS
Info: 49 ANGLES
Info: 79 DIHEDRALS
Info: 0 IMPROPERS
Info: 0 CROSSTERMS
Info: 3030 EXCLUSIONS
Info: 2907 RIGID BONDS
Info: ALCH: 0 ATOMS TO DISAPPEAR IN FINAL STATE
Info: ALCH: 27 ATOMS TO APPEAR IN FINAL STATE
Info: 5841 DEGREES OF FREEDOM
Info: 972 HYDROGEN GROUPS
Info: 4 ATOMS IN LARGEST HYDROGEN GROUP
Info: 972 MIGRATION GROUPS
Info: 4 ATOMS IN LARGEST MIGRATION GROUP
Info: TOTAL MASS = 17479.6 amu
Info: TOTAL CHARGE = -1.49012e-08 e
Info: MASS DENSITY = 0.962785 g/cm^3
Info: ATOM DENSITY = 0.096722 atoms/A^3
Info: ADDED 0 IMPLICIT EXCLUSIONS
Info: NONBONDED TABLE R-SQUARED SPACING: 0.0625
Info: NONBONDED TABLE SIZE: 705 POINTS
Info: REDUCING NUMBER OF PATCHES TO IMPROVE LOAD BALANCE
Info: REMOVING COM VELOCITY 0.114736 0.0982072 0.0456498
Info: Use 3D box decompostion in PME FFT.
Info: Updated CUDA force table with 4096 elements.
Info: Updated CUDA LJ table with 6 x 6 elements.
Info: Found 30 unique exclusion lists needing 112 bytes
TCL: Running for 1500000 steps
ETITLE: TS BOND ANGLE DIHED IMPRP ELECT VDW BOUNDARY MISC KINETIC TOTAL TEMP POTENTIAL TOTALAVG TEMPAVG PRESSURE GPRESSURE VOLUME PRESSAVG GPRESSAVG
ENERGY: 0 2.8667 8.8658 5.7019 0.0000 -10528.2975 1466.6601 0.0000 0.0000 1776.5538 -7267.6492 306.1128 -9044.2030 -7267.6492 306.1128 488.3592 577.8536 30148.2692 488.3592 577.8536
ENERGY: 300000 3.4257 14.6919 5.4582 0.0000 -10418.3706 1384.7938 0.0000 0.0000 1664.6070 -7345.3939 286.8236 -9010.0010 -7334.4647 298.3625 198.6650 268.5311 29683.0992 64.5243 109.7983
ENERGY: 600000 1.8558 13.5824 4.3584 0.0000 -10545.3571 1458.9184 0.0000 0.0000 1795.8128 -7270.8293 309.4313 -9066.6421 -7339.5491 298.7353 634.8401 679.8459 29711.5517 89.7465 132.0565
ENERGY: 900000 3.6465 14.0706 4.7813 0.0000 -10536.0230 1406.6297 0.0000 0.0000 1781.2996 -7325.5953 306.9306 -9106.8949 -7346.7170 299.7914 -102.2528 -9.3913 29942.8156 -108.7230 -56.8905
ENERGY: 1200000 1.6982 17.1068 4.3860 0.0000 -10361.6556 1293.6192 0.0000 0.0000 1765.1016 -7279.7438 304.1395 -9044.8454 -7349.0797 299.2983 -802.3853 -705.8662 30122.1324 -119.9955 -55.7896
ENERGY: 1500000 5.0639 15.3026 7.3064 0.0000 -10446.9678 1353.7627 0.0000 0.0000 1731.6370 -7333.8953 298.3734 -9065.5323 -7339.0158 299.7297 -621.6198 -555.8710 30445.7498 -177.6160 -113.5009
TCL: Running FEP window   2: Lambda1 0.95   Lambda2 0.8999999999999999 [dLambda -0.050000000000000044]
TCL: Setting parameter firsttimestep to 0
TCL: Setting parameter alchLambda to 0.95
Info: NONBONDED TABLE R-SQUARED SPACING: 0.0625
Info: NONBONDED TABLE SIZE: 705 POINTS
TCL: Setting parameter alchLambda2 to 0.8999999999999999
Info: NONBONDED TABLE R-SQUARED SPACING: 0.0625
Info: NONBONDED TABLE SIZE: 705 POINTS
TCL: Running for 1500000 steps
ETITLE: TS BOND ANGLE DIHED IMPRP ELECT VDW BOUNDARY MISC KINETIC TOTAL TEMP POTENTIAL TOTALAVG TEMPAVG PRESSURE GPRESSURE VOLUME PRESSAVG GPRESSAVG
ENERGY: 0 5.0639 15.3026 7.3064 0.0000 -10445.9718 1353.5701 0.0000 0.0000 1730.7469 -7333.9820 298.2200 -9064.7289 -7333.9820 298.2200 -649.2786 -572.1906 30445.7498 -649.2786 -572.1906
ENERGY: 300000 3.6226 10.0593 5.5587 0.0000 -10447.1441 1327.3896 0.0000 0.0000 1749.1133 -7351.4006 301.3846 -9100.5139 -7337.3899 299.7512 -508.9475 -456.1729 29927.4559 -549.1007 -490.6952
ENERGY: 600000 2.9893 22.4538 6.2010 0.0000 -10444.6890 1397.7452 0.0000 0.0000 1712.9356 -7302.3641 295.1510 -9015.2997 -7356.7237 298.0819 -23.3136 44.2178 30164.4757 -255.1991 -184.9619
ENERGY: 900000 2.7371 7.4279 4.5658 0.0000 -10630.0309 1506.4458 0.0000 0.0000 1715.0044 -7393.8499 295.5074 -9108.8542 -7342.5568 298.8776 664.3453 748.3562 30066.1033 -110.9570 -48.3572
ENERGY: 1200000 2.2104 20.7375 5.1923 0.0000 -10679.8922 1525.0345 0.0000 0.0000 1737.3778 -7389.3399 299.3625 -9126.7176 -7350.5053 299.4854 1120.1584 1152.0361 29526.6228 66.0785 128.5836
ENERGY: 1500000 1.7046 12.1996 4.6991 0.0000 -10423.0070 1368.7682 0.0000 0.0000 1763.5365 -7272.0990 303.8699 -9035.6355 -7347.1983 300.4888 -240.9037 -156.4648 30319.5498 39.3003 103.2562
TCL: Running FEP window   3: Lambda1 0.8999999999999999 Lambda2 0.8499999999999999 [dLambda -0.050000000000000044]
TCL: Setting parameter firsttimestep to 0
TCL: Setting parameter alchLambda to 0.8999999999999999
Info: NONBONDED TABLE R-SQUARED SPACING: 0.0625
Info: NONBONDED TABLE SIZE: 705 POINTS
TCL: Setting parameter alchLambda2 to 0.8499999999999999
Info: NONBONDED TABLE R-SQUARED SPACING: 0.0625
Info: NONBONDED TABLE SIZE: 705 POINTS
TCL: Running for 1500000 steps
ETITLE: TS BOND ANGLE DIHED IMPRP ELECT VDW BOUNDARY MISC KINETIC TOTAL TEMP POTENTIAL TOTALAVG TEMPAVG PRESSURE GPRESSURE VOLUME PRESSAVG GPRESSAVG
ENERGY: 0 1.7046 12.1997 4.6991 0.0000 -10422.4081 1369.4509 0.0000 0.0000 1762.7085 -7271.6454 303.7272 -9034.3539 -7271.6454 303.7272 -245.6666 -159.0697 30319.5498 -245.6666 -159.0697
ENERGY: 300000 2.2463 11.5927 7.0105 0.0000 -10396.0467 1334.0666 0.0000 0.0000 1768.8283 -7272.3023 304.7817 -9041.1306 -7300.1053 301.2507 -505.7568 -398.8810 30431.3331 -327.9382 -262.0783
ENERGY: 600000 1.2343 6.7298 6.3119 0.0000 -10504.4680 1424.2790 0.0000 0.0000 1786.5827 -7279.3304 307.8409 -9065.9130 -7345.9731 299.2988 287.1856 332.4930 29781.9635 -111.9867 -51.1790
ENERGY: 900000 5.6459 14.7946 6.8354 0.0000 -10532.3904 1421.1978 0.0000 0.0000 1749.1158 -7334.8008 301.3851 -9083.9167 -7335.5985 300.4279 -47.0704 -19.8736 29964.8232 -181.4341 -126.7949
ENERGY: 1200000 1.2357 13.2830 6.8069 0.0000 -10629.1657 1450.0158 0.0000 0.0000 1662.3131 -7495.5112 286.4283 -9157.8243 -7356.6093 298.6507 317.8153 392.8960 29423.9703 -102.6218 -43.4655
ENERGY: 1500000 0.7357 6.4896 3.6018 0.0000 -10661.0119 1489.6448 0.0000 0.0000 1736.3960 -7424.1439 299.1934 -9160.5399 -7365.2388 298.1826 797.6161 850.0916 29517.4754 -112.4862 -57.2139
TCL: Running FEP window   4: Lambda1 0.8499999999999999 Lambda2 0.7999999999999998 [dLambda -0.050000000000000044]
TCL: Setting parameter firsttimestep to 0
TCL: Setting parameter alchLambda to 0.8499999999999999
Info: NONBONDED TABLE R-SQUARED SPACING: 0.0625
Info: NONBONDED TABLE SIZE: 705 POINTS
TCL: Setting parameter alchLambda2 to 0.7999999999999998
Info: NONBONDED TABLE R-SQUARED SPACING: 0.0625
Info: NONBONDED TABLE SIZE: 705 POINTS
TCL: Running for 1500000 steps
ETITLE: TS BOND ANGLE DIHED IMPRP ELECT VDW BOUNDARY MISC KINETIC TOTAL TEMP POTENTIAL TOTALAVG TEMPAVG PRESSURE GPRESSURE VOLUME PRESSAVG GPRESSAVG
ENERGY: 0 0.7357 6.4896 3.6018 0.0000 -10659.2914 1489.3789 0.0000 0.0000 1735.5184 -7423.5669 299.0421 -9159.0853 -7423.5669 299.0421 751.6980 833.7298 29517.4754 751.6980 833.7298
ENERGY: 300000 2.6380 9.6248 5.5410 0.0000 -10509.1988 1413.9772 0.0000 0.0000 1711.6585 -7365.7591 294.9309 -9077.4177 -7384.9478 299.3081 78.9706 97.0453 30042.7312 294.4442 345.3344
ENERGY: 600000 2.0313 14.5105 6.8452 0.0000 -10565.1578 1448.8232 0.0000 0.0000 1763.3926 -7329.5549 303.8451 -9092.9476 -7360.8468 300.9557 316.7398 393.8132 29836.1567 161.2884 219.3831
ENERGY: 900000 1.5631 16.6121 6.4753 0.0000 -10567.7961 1369.1563 0.0000 0.0000 1787.9438 -7386.0454 308.0754 -9173.9892 -7363.7945 300.7806 -810.6044 -762.4247 30561.1846 -76.7335 -20.4652
ENERGY: 1200000 3.2353 9.5707 5.9010 0.0000 -10472.3514 1363.8761 0.0000 0.0000 1694.7806 -7394.9877 292.0227 -9089.7683 -7358.6629 300.9317 -217.9274 -113.7475 29728.9645 -79.1193 -19.3367
ENERGY: 1500000 2.9912 12.7067 4.1721 0.0000 -10535.6435 1382.4291 0.0000 0.0000 1734.6162 -7398.7281 298.8867 -9133.3443 -7365.5781 300.1412 -347.0628 -279.3136 30139.1408 -190.3768 -129.6884
TCL: Running FEP window   5: Lambda1 0.7999999999999998 Lambda2 0.7499999999999998 [dLambda -0.050000000000000044]
TCL: Setting parameter firsttimestep to 0
TCL: Setting parameter alchLambda to 0.7999999999999998
Info: NONBONDED TABLE R-SQUARED SPACING: 0.0625
Info: NONBONDED TABLE SIZE: 705 POINTS
TCL: Setting parameter alchLambda2 to 0.7499999999999998
Info: NONBONDED TABLE R-SQUARED SPACING: 0.0625
Info: NONBONDED TABLE SIZE: 705 POINTS
TCL: Running for 1500000 steps
ETITLE: TS BOND ANGLE DIHED IMPRP ELECT VDW BOUNDARY MISC KINETIC TOTAL TEMP POTENTIAL TOTALAVG TEMPAVG PRESSURE GPRESSURE VOLUME PRESSAVG GPRESSAVG
ENERGY: 0 2.9912 12.7067 4.1721 0.0000 -10534.2529 1382.0594 0.0000 0.0000 1733.7622 -7398.5613 298.7395 -9132.3235 -7398.5613 298.7395 -385.1562 -298.8370 30139.1408 -385.1562 -298.8370
ENERGY: 300000 3.1868 14.7536 5.4057 0.0000 -10434.0637 1309.6360 0.0000 0.0000 1710.6742 -7390.4074 294.7613 -9101.0816 -7368.3163 298.6410 -729.1975 -696.7532 29741.0927 -255.2824 -214.3164
ENERGY: 600000 0.5374 10.9725 4.8867 0.0000 -10527.7975 1468.7114 0.0000 0.0000 1741.4345 -7301.2549 300.0615 -9042.6895 -7353.8284 299.4341 654.6136 651.8636 30179.2681 -156.2761 -101.2725
ENERGY: 900000 3.2904 9.1457 4.5004 0.0000 -10530.1472 1422.2863 0.0000 0.0000 1763.8840 -7327.0403 303.9297 -9090.9244 -7340.3841 300.6314 45.7018 133.2145 30399.2523 -35.9180 12.6313
ENERGY: 1200000 1.8987 13.0587 3.3670 0.0000 -10692.8612 1498.5483 0.0000 0.0000 1745.7973 -7430.1912 300.8133 -9175.9886 -7345.3806 301.0563 630.5211 730.7768 29549.8634 73.5745 126.9046
ENERGY: 1500000 2.7519 19.7436 8.2841 0.0000 -10414.2500 1352.4389 0.0000 0.0000 1777.2412 -7253.7904 306.2313 -9031.0315 -7333.4942 300.8606 -298.6727 -321.0928 30108.8513 -8.2439 42.7886
TCL: Running FEP window   6: Lambda1 0.7499999999999998 Lambda2 0.6999999999999997 [dLambda -0.050000000000000044]
TCL: Setting parameter firsttimestep to 0
TCL: Setting parameter alchLambda to 0.7499999999999998
Info: NONBONDED TABLE R-SQUARED SPACING: 0.0625
Info: NONBONDED TABLE SIZE: 705 POINTS
TCL: Setting parameter alchLambda2 to 0.6999999999999997
Info: NONBONDED TABLE R-SQUARED SPACING: 0.0625
Info: NONBONDED TABLE SIZE: 705 POINTS
TCL: Running for 1500000 steps
ETITLE: TS BOND ANGLE DIHED IMPRP ELECT VDW BOUNDARY MISC KINETIC TOTAL TEMP POTENTIAL TOTALAVG TEMPAVG PRESSURE GPRESSURE VOLUME PRESSAVG GPRESSAVG
ENERGY: 0 2.7519 19.7436 8.2841 0.0000 -10412.5711 1352.1246 0.0000 0.0000 1776.3811 -7253.2857 306.0831 -9029.6669 -7253.2857 306.0831 -408.0151 -336.1522 30108.8513 -408.0151 -336.1522
ENERGY: 300000 2.4709 8.5363 6.3654 0.0000 -10658.4124 1479.3238 0.0000 0.0000 1738.6603 -7423.0556 299.5835 -9161.7159 -7346.0297 301.6198 562.8829 599.1349 29945.2701 -31.4667 28.0514
ENERGY: 600000 4.9703 10.6110 8.5634 0.0000 -10516.1839 1440.5303 0.0000 0.0000 1730.2661 -7321.2428 298.1371 -9051.5089 -7355.0181 299.1609 301.9803 315.0457 29926.6883 -157.4590 -93.7069
ENERGY: 900000 4.0569 10.3040 5.3860 0.0000 -10573.7368 1485.7053 0.0000 0.0000 1743.2447 -7325.0398 300.3734 -9068.2845 -7348.3708 299.2268 387.8224 454.6997 30068.3202 -69.3117 2.5654
ENERGY: 1200000 2.0246 8.2693 5.6448 0.0000 -10521.5293 1463.5039 0.0000 0.0000 1728.1905 -7313.8962 297.7795 -9042.0868 -7347.7167 297.8282 446.7110 504.7381 30240.8874 -96.8386 -27.1234
ENERGY: 1500000 1.3378 16.1763 5.1570 0.0000 -10468.3263 1361.7243 0.0000 0.0000 1786.7478 -7297.1831 307.8693 -9083.9310 -7347.2334 298.9834 -299.4994 -212.6111 29923.3396 -171.1419 -102.8587
TCL: Running FEP window   7: Lambda1 0.6999999999999997 Lambda2 0.6499999999999997 [dLambda -0.050000000000000044]
TCL: Setting parameter firsttimestep to 0
TCL: Setting parameter alchLambda to 0.6999999999999997
Info: NONBONDED TABLE R-SQUARED SPACING: 0.0625
Info: NONBONDED TABLE SIZE: 705 POINTS
TCL: Setting parameter alchLambda2 to 0.6499999999999997
Info: NONBONDED TABLE R-SQUARED SPACING: 0.0625
Info: NONBONDED TABLE SIZE: 705 POINTS
TCL: Running for 1500000 steps
ETITLE: TS BOND ANGLE DIHED IMPRP ELECT VDW BOUNDARY MISC KINETIC TOTAL TEMP POTENTIAL TOTALAVG TEMPAVG PRESSURE GPRESSURE VOLUME PRESSAVG GPRESSAVG
ENERGY: 0 1.3378 16.1763 5.1570 0.0000 -10467.0943 1361.6465 0.0000 0.0000 1785.8687 -7296.9081 307.7179 -9082.7768 -7296.9081 307.7179 -309.5588 -221.9995 29923.3396 -309.5588 -221.9995
ENERGY: 300000 2.3205 9.6094 3.8119 0.0000 -10492.6987 1372.3230 0.0000 0.0000 1733.1984 -7371.4355 298.6424 -9104.6338 -7289.1936 302.3574 -412.4390 -348.9064 29634.6800 -177.0689 -101.7345
ENERGY: 600000 0.7803 15.6458 3.9562 0.0000 -10612.5928 1433.7695 0.0000 0.0000 1769.8850 -7388.5560 304.9637 -9158.4409 -7305.0134 301.2420 191.2185 242.2746 29521.5929 -48.8549 15.8663
ENERGY: 900000 3.6528 13.4574 4.2201 0.0000 -10347.0666 1284.9090 0.0000 0.0000 1779.7848 -7261.0424 306.6696 -9040.8272 -7304.1346 300.9963 -922.7681 -907.0417 30167.2246 -164.0814 -110.4006
ENERGY: 1200000 2.9671 15.1965 4.2583 0.0000 -10567.7419 1444.5292 0.0000 0.0000 1802.2544 -7298.5363 310.5412 -9100.7907 -7312.1356 301.8573 -79.5937 -18.9023 30339.5657 -88.4669 -31.6917
ENERGY: 1500000 3.9462 12.6466 4.8780 0.0000 -10414.4728 1352.6483 0.0000 0.0000 1732.9187 -7307.4351 298.5942 -9040.3538 -7306.1052 301.6220 -296.1119 -285.4355 29690.4698 -117.4596 -62.6945
TCL: Running FEP window   8: Lambda1 0.6499999999999997 Lambda2 0.5999999999999996 [dLambda -0.050000000000000044]
TCL: Setting parameter firsttimestep to 0
TCL: Setting parameter alchLambda to 0.6499999999999997
Info: NONBONDED TABLE R-SQUARED SPACING: 0.0625
Info: NONBONDED TABLE SIZE: 705 POINTS
TCL: Setting parameter alchLambda2 to 0.5999999999999996
Info: NONBONDED TABLE R-SQUARED SPACING: 0.0625
Info: NONBONDED TABLE SIZE: 705 POINTS
TCL: Running for 1500000 steps
ETITLE: TS BOND ANGLE DIHED IMPRP ELECT VDW BOUNDARY MISC KINETIC TOTAL TEMP POTENTIAL TOTALAVG TEMPAVG PRESSURE GPRESSURE VOLUME PRESSAVG GPRESSAVG
ENERGY: 0 3.9462 12.6466 4.8780 0.0000 -10413.4540 1352.8556 0.0000 0.0000 1732.0462 -7307.0814 298.4439 -9039.1276 -7307.0814 298.4439 -381.3449 -296.5447 29690.4698 -381.3449 -296.5447
ENERGY: 300000 2.2193 15.3749 5.2249 0.0000 -10301.5759 1270.3178 0.0000 0.0000 1780.6989 -7227.7401 306.8271 -9008.4390 -7296.4398 299.8681 -815.6463 -731.3885 29743.5787 -331.5005 -287.1555
ENERGY: 600000 3.7866 11.8925 5.2233 0.0000 -10662.1327 1487.8896 0.0000 0.0000 1740.7969 -7412.5437 299.9517 -9153.3407 -7329.8890 299.1212 506.0924 634.1255 29399.6420 -148.4902 -89.7214
ENERGY: 900000 1.6642 11.3956 5.3922 0.0000 -10607.3726 1465.7529 0.0000 0.0000 1785.8236 -7337.3442 307.7101 -9123.1677 -7335.8371 299.4757 166.9210 270.6547 30119.5587 -194.3946 -132.1110
ENERGY: 1200000 1.2744 16.2410 5.2561 0.0000 -10484.0781 1381.1135 0.0000 0.0000 1827.0460 -7253.1471 314.8130 -9080.1931 -7331.3849 300.0150 -12.4317 14.7821 29782.8881 -204.5847 -148.7286
ENERGY: 1500000 2.3547 13.7140 3.9359 0.0000 -10462.1782 1376.6674 0.0000 0.0000 1775.8083 -7289.6979 305.9844 -9065.5062 -7336.1701 300.0371 -487.7382 -435.1546 30385.8921 -246.4221 -186.5271
TCL: Running FEP window   9: Lambda1 0.5999999999999996 Lambda2 0.5499999999999996 [dLambda -0.050000000000000044]
TCL: Setting parameter firsttimestep to 0
TCL: Setting parameter alchLambda to 0.5999999999999996
Info: NONBONDED TABLE R-SQUARED SPACING: 0.0625
Info: NONBONDED TABLE SIZE: 705 POINTS
TCL: Setting parameter alchLambda2 to 0.5499999999999996
Info: NONBONDED TABLE R-SQUARED SPACING: 0.0625
Info: NONBONDED TABLE SIZE: 705 POINTS
TCL: Running for 1500000 steps
ETITLE: TS BOND ANGLE DIHED IMPRP ELECT VDW BOUNDARY MISC KINETIC TOTAL TEMP POTENTIAL TOTALAVG TEMPAVG PRESSURE GPRESSURE VOLUME PRESSAVG GPRESSAVG
ENERGY: 0 2.3547 13.7140 3.9359 0.0000 -10461.7715 1377.1128 0.0000 0.0000 1774.9475 -7289.7066 305.8361 -9064.6541 -7289.7066 305.8361 -530.9278 -438.6855 30385.8921 -530.9278 -438.6855
ENERGY: 300000 3.9332 14.1175 4.2732 0.0000 -10485.0642 1406.2175 0.0000 0.0000 1745.7437 -7310.7792 300.8040 -9056.5229 -7344.5682 298.6150 -40.4725 -30.6435 29976.7898 -458.5187 -416.1609
ENERGY: 600000 2.5988 9.5334 6.9683 0.0000 -10389.6753 1319.9451 0.0000 0.0000 1728.4911 -7322.1386 297.8313 -9050.6296 -7335.0705 299.6962 -530.8464 -469.1878 29755.0134 -443.7349 -401.3965
ENERGY: 900000 2.7637 11.9636 4.0372 0.0000 -10503.6655 1373.8015 0.0000 0.0000 1717.6226 -7393.4769 295.9586 -9111.0996 -7353.1280 299.2257 -169.4049 -123.0690 29800.8271 -428.6618 -386.4693
ENERGY: 1200000 5.5104 15.7472 4.4514 0.0000 -10564.9780 1457.1703 0.0000 0.0000 1755.6564 -7326.4424 302.5121 -9082.0988 -7347.5441 299.4944 516.8359 521.5749 29541.6150 -357.9784 -320.4115
ENERGY: 1500000 1.2896 12.7378 5.8946 0.0000 -10460.5892 1366.1684 0.0000 0.0000 1744.8490 -7329.6498 300.6499 -9074.4988 -7346.2938 299.7347 -294.1046 -204.8269 29973.1338 -307.2253 -264.9950
TCL: Running FEP window  10: Lambda1 0.5499999999999996 Lambda2 0.4999999999999996 [dLambda -0.04999999999999999]
TCL: Setting parameter firsttimestep to 0
TCL: Setting parameter alchLambda to 0.5499999999999996
Info: NONBONDED TABLE R-SQUARED SPACING: 0.0625
Info: NONBONDED TABLE SIZE: 705 POINTS
TCL: Setting parameter alchLambda2 to 0.4999999999999996
Info: NONBONDED TABLE R-SQUARED SPACING: 0.0625
Info: NONBONDED TABLE SIZE: 705 POINTS
TCL: Running for 1500000 steps
ETITLE: TS BOND ANGLE DIHED IMPRP ELECT VDW BOUNDARY MISC KINETIC TOTAL TEMP POTENTIAL TOTALAVG TEMPAVG PRESSURE GPRESSURE VOLUME PRESSAVG GPRESSAVG
ENERGY: 0 1.2896 12.7378 5.8946 0.0000 -10460.1145 1366.9248 0.0000 0.0000 1743.9838 -7329.2840 300.5008 -9073.2678 -7329.2840 300.5008 -293.8417 -206.0137 29973.1338 -293.8417 -206.0137
ENERGY: 300000 2.0536 17.9478 6.2496 0.0000 -10524.9708 1422.8406 0.0000 0.0000 1805.7681 -7270.1110 311.1467 -9075.8792 -7314.8149 303.3398 40.3374 117.1502 29983.3927 26.7039 107.4439
ENERGY: 600000 1.7475 15.1254 4.2546 0.0000 -10369.2975 1309.4822 0.0000 0.0000 1740.4406 -7298.2472 299.8903 -9038.6878 -7333.7669 300.6746 -524.5884 -449.9431 29944.9903 63.7381 133.4799
ENERGY: 900000 2.5801 13.1105 4.1182 0.0000 -10538.8322 1457.9506 0.0000 0.0000 1792.7816 -7268.2912 308.9090 -9061.0728 -7335.4585 301.9881 418.6387 470.5425 30064.5985 149.8730 221.1393
ENERGY: 1200000 1.7339 10.7331 5.3965 0.0000 -10427.3261 1367.9756 0.0000 0.0000 1767.9498 -7273.5372 304.6303 -9041.4870 -7331.5113 301.3256 -401.2101 -296.3970 30119.7703 54.1169 125.5891
ENERGY: 1500000 0.7481 11.9154 5.0019 0.0000 -10621.0305 1501.0099 0.0000 0.0000 1767.6335 -7334.7217 304.5758 -9102.3551 -7326.6855 302.0469 972.7710 1009.1284 29328.0690 144.3767 214.7645
TCL: Running FEP window  11: Lambda1 0.4999999999999996 Lambda2 0.4499999999999996 [dLambda -0.04999999999999999]
TCL: Setting parameter firsttimestep to 0
TCL: Setting parameter alchLambda to 0.4999999999999996
Info: NONBONDED TABLE R-SQUARED SPACING: 0.0625
Info: NONBONDED TABLE SIZE: 705 POINTS
TCL: Setting parameter alchLambda2 to 0.4499999999999996
Info: NONBONDED TABLE R-SQUARED SPACING: 0.0625
Info: NONBONDED TABLE SIZE: 705 POINTS
TCL: Running for 1500000 steps
ETITLE: TS BOND ANGLE DIHED IMPRP ELECT VDW BOUNDARY MISC KINETIC TOTAL TEMP POTENTIAL TOTALAVG TEMPAVG PRESSURE GPRESSURE VOLUME PRESSAVG GPRESSAVG
ENERGY: 0 0.7481 11.9154 5.0019 0.0000 -10620.7273 1500.5929 0.0000 0.0000 1766.8000 -7335.6689 304.4322 -9102.4689 -7335.6689 304.4322 912.9377 993.5514 29328.0690 912.9377 993.5514
ENERGY: 300000 1.3028 13.7787 5.5179 0.0000 -10562.0847 1415.9941 0.0000 0.0000 1765.9062 -7359.5850 304.2782 -9125.4912 -7335.2962 306.5563 129.9458 73.4195 29738.2872 597.1987 620.0317
ENERGY: 600000 4.0716 16.4172 5.8180 0.0000 -10692.0226 1524.4262 0.0000 0.0000 1722.7813 -7418.5083 296.8474 -9141.2896 -7356.7531 303.2956 903.4966 1003.9767 29109.9074 572.5736 622.0903
ENERGY: 900000 1.5273 9.5221 4.9926 0.0000 -10594.6178 1434.8410 0.0000 0.0000 1732.8273 -7410.9075 298.5785 -9143.7349 -7366.2610 301.1919 66.4224 138.5873 29793.4355 556.0364 609.3915
ENERGY: 1200000 3.1332 8.9131 4.8172 0.0000 -10562.8390 1445.5366 0.0000 0.0000 1727.5917 -7372.8471 297.6763 -9100.4388 -7370.6396 300.2103 354.9250 405.1559 29517.4407 469.3756 526.8169
ENERGY: 1500000 2.1572 15.6058 4.3667 0.0000 -10423.3586 1339.9008 0.0000 0.0000 1759.1914 -7302.1367 303.1212 -9061.3281 -7366.5817 300.2685 -514.2261 -562.3668 30071.4751 304.7844 356.4753
TCL: Running FEP window  12: Lambda1 0.4499999999999996 Lambda2 0.39999999999999963 [dLambda -0.04999999999999999]
TCL: Setting parameter firsttimestep to 0
TCL: Setting parameter alchLambda to 0.4499999999999996
Info: NONBONDED TABLE R-SQUARED SPACING: 0.0625
Info: NONBONDED TABLE SIZE: 705 POINTS
TCL: Setting parameter alchLambda2 to 0.39999999999999963
Info: NONBONDED TABLE R-SQUARED SPACING: 0.0625
Info: NONBONDED TABLE SIZE: 705 POINTS
TCL: Running for 1500000 steps
ETITLE: TS BOND ANGLE DIHED IMPRP ELECT VDW BOUNDARY MISC KINETIC TOTAL TEMP POTENTIAL TOTALAVG TEMPAVG PRESSURE GPRESSURE VOLUME PRESSAVG GPRESSAVG
ENERGY: 0 2.1572 15.6058 4.3667 0.0000 -10423.3588 1340.0735 0.0000 0.0000 1758.3189 -7302.8366 302.9708 -9061.1555 -7302.8366 302.9708 -639.9284 -568.8551 30071.4751 -639.9284 -568.8551
ENERGY: 300000 3.6449 12.4844 6.1353 0.0000 -10413.3812 1347.6006 0.0000 0.0000 1705.7427 -7337.7733 293.9116 -9043.5160 -7321.0541 298.6362 -586.6199 -524.5873 30152.8780 -382.3601 -322.1258
ENERGY: 600000 3.6753 13.0494 6.3759 0.0000 -10552.9883 1454.4734 0.0000 0.0000 1753.6200 -7321.7943 302.1612 -9075.4143 -7322.2103 299.3460 528.2211 580.3062 29486.5642 -300.8206 -233.3652
ENERGY: 900000 5.3904 8.3650 4.8635 0.0000 -10562.1990 1444.2426 0.0000 0.0000 1654.4464 -7444.8911 285.0729 -9099.3376 -7334.2064 298.4654 21.7352 2.6596 30078.9776 -251.6013 -192.8913
ENERGY: 1200000 2.0881 12.3133 5.5900 0.0000 -10466.7365 1355.1329 0.0000 0.0000 1769.2869 -7322.3252 304.8607 -9091.6122 -7326.3592 299.2545 -492.7125 -419.7025 29784.2636 -214.6953 -163.4541
ENERGY: 1500000 2.0809 14.6862 7.0273 0.0000 -10533.8852 1442.6921 0.0000 0.0000 1714.1345 -7353.2642 295.3576 -9067.3987 -7337.0374 298.3894 326.7248 406.1308 29674.4503 -197.4408 -145.0118
TCL: Running FEP window  13: Lambda1 0.39999999999999963 Lambda2 0.34999999999999964 [dLambda -0.04999999999999999]
TCL: Setting parameter firsttimestep to 0
TCL: Setting parameter alchLambda to 0.39999999999999963
Info: NONBONDED TABLE R-SQUARED SPACING: 0.0625
Info: NONBONDED TABLE SIZE: 705 POINTS
TCL: Setting parameter alchLambda2 to 0.34999999999999964
Info: NONBONDED TABLE R-SQUARED SPACING: 0.0625
Info: NONBONDED TABLE SIZE: 705 POINTS
TCL: Running for 1500000 steps
ETITLE: TS BOND ANGLE DIHED IMPRP ELECT VDW BOUNDARY MISC KINETIC TOTAL TEMP POTENTIAL TOTALAVG TEMPAVG PRESSURE GPRESSURE VOLUME PRESSAVG GPRESSAVG
ENERGY: 0 2.0809 14.6862 7.0273 0.0000 -10533.8851 1443.2063 0.0000 0.0000 1713.2624 -7353.6221 295.2073 -9066.8845 -7353.6221 295.2073 330.2257 403.5067 29674.4503 330.2257 403.5067
ENERGY: 300000 5.2930 9.9584 5.7949 0.0000 -10659.4379 1523.9088 0.0000 0.0000 1702.3341 -7412.1487 293.3242 -9114.4827 -7383.8804 294.9312 615.5962 732.5889 29508.6250 99.0480 171.0638
ENERGY: 600000 1.5961 11.1017 5.3672 0.0000 -10590.4593 1470.1909 0.0000 0.0000 1770.4417 -7331.7618 305.0597 -9102.2035 -7364.6446 299.0097 463.7199 534.0263 29702.7749 118.5314 183.5004
ENERGY: 900000 3.1254 6.7199 4.6577 0.0000 -10566.2205 1435.1895 0.0000 0.0000 1700.3568 -7416.1712 292.9835 -9116.5280 -7365.6638 298.6242 82.0794 93.1720 29927.2116 -49.1046 13.1323
ENERGY: 1200000 7.1095 11.6154 5.0484 0.0000 -10449.2964 1389.4312 0.0000 0.0000 1739.0591 -7297.0328 299.6522 -9036.0919 -7357.3440 298.0971 -417.0395 -341.5535 30219.0107 -193.2726 -128.3220
ENERGY: 1500000 1.8845 10.7794 5.1186 0.0000 -10472.2488 1399.4406 0.0000 0.0000 1723.9986 -7331.0270 297.0572 -9055.0256 -7357.1441 298.6299 -213.6379 -109.7943 29978.7238 -216.1190 -147.4042
TCL: Running FEP window  14: Lambda1 0.34999999999999964 Lambda2 0.29999999999999966 [dLambda -0.04999999999999999]
TCL: Setting parameter firsttimestep to 0
TCL: Setting parameter alchLambda to 0.34999999999999964
Info: NONBONDED TABLE R-SQUARED SPACING: 0.0625
Info: NONBONDED TABLE SIZE: 705 POINTS
TCL: Setting parameter alchLambda2 to 0.29999999999999966
Info: NONBONDED TABLE R-SQUARED SPACING: 0.0625
Info: NONBONDED TABLE SIZE: 705 POINTS
TCL: Running for 1500000 steps
ETITLE: TS BOND ANGLE DIHED IMPRP ELECT VDW BOUNDARY MISC KINETIC TOTAL TEMP POTENTIAL TOTALAVG TEMPAVG PRESSURE GPRESSURE VOLUME PRESSAVG GPRESSAVG
ENERGY: 0 1.8845 10.7794 5.1186 0.0000 -10472.2495 1399.7845 0.0000 0.0000 1723.1525 -7331.5299 296.9114 -9054.6824 -7331.5299 296.9114 -223.2437 -113.5822 29978.7238 -223.2437 -113.5822
ENERGY: 300000 2.1875 9.2237 7.7473 0.0000 -10445.9625 1328.0685 0.0000 0.0000 1783.9611 -7314.7744 307.3892 -9098.7355 -7350.3282 299.5558 -541.1846 -539.0050 29626.6249 -195.3149 -138.3390
ENERGY: 600000 1.6410 11.2044 6.1374 0.0000 -10502.2437 1435.1302 0.0000 0.0000 1706.0143 -7342.1163 293.9584 -9048.1306 -7320.6795 299.3004 107.5053 124.0087 30075.4311 -257.2091 -225.1729
ENERGY: 900000 2.3761 13.0090 6.6713 0.0000 -10536.3022 1447.2451 0.0000 0.0000 1756.4132 -7310.5875 302.6425 -9067.0008 -7322.5462 300.1043 208.0325 212.5045 29994.1168 -204.4904 -173.8963
ENERGY: 1200000 2.6332 10.9690 6.4280 0.0000 -10504.6079 1455.9913 0.0000 0.0000 1723.7279 -7304.8586 297.0106 -9028.5864 -7318.3521 300.8941 390.1579 505.2396 29995.4683 -158.4635 -121.4551
ENERGY: 1500000 0.8975 12.0000 7.1742 0.0000 -10586.7504 1480.2180 0.0000 0.0000 1757.5713 -7328.8895 302.8420 -9086.4607 -7322.5655 300.6263 768.0978 829.5694 29449.7466 -141.5740 -96.5334
TCL: Running FEP window  15: Lambda1 0.29999999999999966 Lambda2 0.24999999999999967 [dLambda -0.04999999999999999]
TCL: Setting parameter firsttimestep to 0
TCL: Setting parameter alchLambda to 0.29999999999999966
Info: NONBONDED TABLE R-SQUARED SPACING: 0.0625
Info: NONBONDED TABLE SIZE: 705 POINTS
TCL: Setting parameter alchLambda2 to 0.24999999999999967
Info: NONBONDED TABLE R-SQUARED SPACING: 0.0625
Info: NONBONDED TABLE SIZE: 705 POINTS
TCL: Running for 1500000 steps
ETITLE: TS BOND ANGLE DIHED IMPRP ELECT VDW BOUNDARY MISC KINETIC TOTAL TEMP POTENTIAL TOTALAVG TEMPAVG PRESSURE GPRESSURE VOLUME PRESSAVG GPRESSAVG
ENERGY: 0 0.8975 12.0000 7.1742 0.0000 -10586.7495 1480.8865 0.0000 0.0000 1756.6922 -7329.0992 302.6905 -9085.7914 -7329.0992 302.6905 725.7592 826.4370 29449.7466 725.7592 826.4370
ENERGY: 300000 5.1543 14.4395 4.3474 0.0000 -10622.9470 1468.4210 0.0000 0.0000 1759.8380 -7370.7469 303.2326 -9130.5849 -7352.8854 302.9630 298.5988 377.5022 29727.5568 190.0405 254.0829
ENERGY: 600000 0.8869 9.7785 5.1277 0.0000 -10401.3792 1369.0434 0.0000 0.0000 1779.9186 -7236.6242 306.6926 -9016.5428 -7345.2037 302.1632 -172.8080 -136.9002 29990.1338 59.2130 125.5444
ENERGY: 900000 2.4572 12.6167 5.7705 0.0000 -10561.8683 1449.5288 0.0000 0.0000 1747.5800 -7343.9151 301.1204 -9091.4951 -7343.4872 302.3594 364.4544 390.2246 29618.0722 64.1215 125.2292
ENERGY: 1200000 2.4068 16.8164 5.5171 0.0000 -10620.0954 1486.2794 0.0000 0.0000 1726.3210 -7382.7546 297.4574 -9109.0756 -7344.1125 301.5661 682.4151 741.7591 29194.8681 80.6396 148.4799
ENERGY: 1500000 6.1657 13.1386 4.5814 0.0000 -10375.9321 1374.5695 0.0000 0.0000 1717.0020 -7260.4748 295.8516 -8977.4768 -7336.7136 301.1431 -76.8452 -35.7748 29951.8293 43.7992 105.2815
TCL: Running FEP window  16: Lambda1 0.24999999999999967 Lambda2 0.19999999999999968 [dLambda -0.04999999999999999]
TCL: Setting parameter firsttimestep to 0
TCL: Setting parameter alchLambda to 0.24999999999999967
Info: NONBONDED TABLE R-SQUARED SPACING: 0.0625
Info: NONBONDED TABLE SIZE: 705 POINTS
TCL: Setting parameter alchLambda2 to 0.19999999999999968
Info: NONBONDED TABLE R-SQUARED SPACING: 0.0625
Info: NONBONDED TABLE SIZE: 705 POINTS
TCL: Running for 1500000 steps
ETITLE: TS BOND ANGLE DIHED IMPRP ELECT VDW BOUNDARY MISC KINETIC TOTAL TEMP POTENTIAL TOTALAVG TEMPAVG PRESSURE GPRESSURE VOLUME PRESSAVG GPRESSAVG
ENERGY: 0 6.1657 13.1386 4.5814 0.0000 -10375.9323 1374.5839 0.0000 0.0000 1716.1617 -7261.3010 295.7069 -8977.4627 -7261.3010 295.7069 -129.5319 -41.9161 29951.8293 -129.5319 -41.9161
ENERGY: 300000 2.4656 11.2771 4.2500 0.0000 -10451.8287 1358.7589 0.0000 0.0000 1756.8180 -7318.2591 302.7122 -9075.0771 -7310.3989 299.1101 -428.1809 -443.3482 29951.6431 -347.4258 -287.9848
ENERGY: 600000 3.0833 13.9386 5.2480 0.0000 -10563.9694 1442.7126 0.0000 0.0000 1752.7616 -7346.2252 302.0133 -9098.9868 -7317.2036 300.6840 111.5279 120.6009 30061.1384 -185.9308 -137.4225
ENERGY: 900000 2.4242 13.8789 6.2993 0.0000 -10514.8676 1455.4275 0.0000 0.0000 1695.3398 -7341.4978 292.1191 -9036.8377 -7319.4042 300.4325 703.0446 740.7522 29598.2821 -43.8285 4.3767
ENERGY: 1200000 1.4497 13.7849 4.8247 0.0000 -10517.1545 1375.2707 0.0000 0.0000 1819.5638 -7302.2606 313.5238 -9121.8245 -7336.4205 301.3277 -535.5081 -451.9131 30139.8744 -102.1482 -55.8890
ENERGY: 1500000 0.4710 17.6214 6.6525 0.0000 -10419.8269 1343.5995 0.0000 0.0000 1733.7073 -7317.7752 298.7301 -9051.4825 -7328.3713 301.3622 -637.4081 -639.9224 30327.6242 -155.6879 -121.5964
TCL: Running FEP window  17: Lambda1 0.19999999999999968 Lambda2 0.1499999999999997 [dLambda -0.04999999999999999]
TCL: Setting parameter firsttimestep to 0
TCL: Setting parameter alchLambda to 0.19999999999999968
Info: NONBONDED TABLE R-SQUARED SPACING: 0.0625
Info: NONBONDED TABLE SIZE: 705 POINTS
TCL: Setting parameter alchLambda2 to 0.1499999999999997
Info: NONBONDED TABLE R-SQUARED SPACING: 0.0625
Info: NONBONDED TABLE SIZE: 705 POINTS
TCL: Running for 1500000 steps
ETITLE: TS BOND ANGLE DIHED IMPRP ELECT VDW BOUNDARY MISC KINETIC TOTAL TEMP POTENTIAL TOTALAVG TEMPAVG PRESSURE GPRESSURE VOLUME PRESSAVG GPRESSAVG
ENERGY: 0 0.4710 17.6214 6.6525 0.0000 -10419.8267 1343.7744 0.0000 0.0000 1732.8200 -7318.4874 298.5772 -9051.3074 -7318.4874 298.5772 -727.6425 -643.6350 30327.6242 -727.6425 -643.6350
ENERGY: 300000 3.4524 18.1606 4.6428 0.0000 -10602.6235 1493.7414 0.0000 0.0000 1712.9336 -7369.6926 295.1506 -9082.6261 -7353.7305 296.6193 652.4096 698.4627 29722.5019 203.3768 258.9133
ENERGY: 600000 4.4083 12.2944 4.6549 0.0000 -10462.6634 1365.2575 0.0000 0.0000 1731.8813 -7344.1670 298.4155 -9076.0483 -7358.7700 296.6833 -489.2145 -429.2914 30175.6624 -5.1663 48.6664
ENERGY: 900000 5.3941 16.2400 5.8861 0.0000 -10525.1651 1453.2353 0.0000 0.0000 1749.1577 -7295.2519 301.3923 -9044.4096 -7355.1772 296.4024 76.0922 181.4804 29740.6568 -128.1527 -60.0477
ENERGY: 1200000 1.3517 12.6649 5.6522 0.0000 -10481.9734 1407.1751 0.0000 0.0000 1726.9004 -7328.2290 297.5572 -9055.1294 -7338.9105 298.1780 19.2895 94.8494 29756.7455 -58.8317 9.9726
ENERGY: 1500000 1.4850 9.0532 5.4576 0.0000 -10598.5808 1484.6372 0.0000 0.0000 1690.7179 -7407.2299 291.3227 -9097.9478 -7336.0120 297.2857 480.9104 585.5701 29572.3670 -49.5634 20.3488
TCL: Running FEP window  18: Lambda1 0.1499999999999997 Lambda2 0.09999999999999969 [dLambda -0.05 ]
TCL: Setting parameter firsttimestep to 0
TCL: Setting parameter alchLambda to 0.1499999999999997
Info: NONBONDED TABLE R-SQUARED SPACING: 0.0625
Info: NONBONDED TABLE SIZE: 705 POINTS
TCL: Setting parameter alchLambda2 to 0.09999999999999969
Info: NONBONDED TABLE R-SQUARED SPACING: 0.0625
Info: NONBONDED TABLE SIZE: 705 POINTS
TCL: Running for 1500000 steps
ETITLE: TS BOND ANGLE DIHED IMPRP ELECT VDW BOUNDARY MISC KINETIC TOTAL TEMP POTENTIAL TOTALAVG TEMPAVG PRESSURE GPRESSURE VOLUME PRESSAVG GPRESSAVG
ENERGY: 0 1.4850 9.0532 5.4576 0.0000 -10598.5806 1484.5842 0.0000 0.0000 1689.8319 -7408.1687 291.1700 -9098.0006 -7408.1687 291.1700 509.5661 579.1580 29572.3670 509.5661 579.1580
ENERGY: 300000 3.2443 14.2209 5.3649 0.0000 -10560.2191 1406.9394 0.0000 0.0000 1723.1959 -7407.2537 296.9189 -9130.4496 -7358.4004 296.5846 -175.2753 -146.3634 29625.4108 370.3787 434.0157
ENERGY: 600000 1.2466 10.0482 4.3362 0.0000 -10644.8333 1451.4072 0.0000 0.0000 1755.1135 -7422.6816 302.4185 -9177.7952 -7357.6900 299.6007 255.9298 278.6613 29267.6612 41.5359 114.4765
ENERGY: 900000 0.8865 12.0621 5.2692 0.0000 -10636.8082 1514.5013 0.0000 0.0000 1699.4804 -7404.6088 292.8325 -9104.0892 -7353.4186 298.9890 743.2587 830.5141 29663.1660 165.1934 227.9207
ENERGY: 1200000 4.3072 9.4799 5.4114 0.0000 -10530.9307 1387.5548 0.0000 0.0000 1707.5528 -7416.6246 294.2235 -9124.1774 -7356.3090 299.0370 -705.8008 -652.6045 30325.6597 56.7798 121.5733
ENERGY: 1500000 2.2799 10.1933 7.0661 0.0000 -10571.8331 1419.0714 0.0000 0.0000 1766.3809 -7366.8414 304.3600 -9133.2223 -7355.0119 299.3670 -226.5969 -71.0711 29378.8338 -5.0100 66.9546
TCL: Running FEP window  19: Lambda1 0.09999999999999969 Lambda2 0.049999999999999684 [dLambda -0.05 ]
TCL: Setting parameter firsttimestep to 0
TCL: Setting parameter alchLambda to 0.09999999999999969
Info: NONBONDED TABLE R-SQUARED SPACING: 0.0625
Info: NONBONDED TABLE SIZE: 705 POINTS
TCL: Setting parameter alchLambda2 to 0.049999999999999684
Info: NONBONDED TABLE R-SQUARED SPACING: 0.0625
Info: NONBONDED TABLE SIZE: 705 POINTS
TCL: Running for 1500000 steps
ETITLE: TS BOND ANGLE DIHED IMPRP ELECT VDW BOUNDARY MISC KINETIC TOTAL TEMP POTENTIAL TOTALAVG TEMPAVG PRESSURE GPRESSURE VOLUME PRESSAVG GPRESSAVG
ENERGY: 0 2.2799 10.1933 7.0661 0.0000 -10571.8337 1418.8742 0.0000 0.0000 1765.4941 -7367.9262 304.2072 -9133.4202 -7367.9262 304.2072 -171.1093 -76.7068 29378.8338 -171.1093 -76.7068
ENERGY: 300000 9.0369 12.5825 5.1366 0.0000 -10436.5181 1314.0814 0.0000 0.0000 1721.0094 -7374.6714 296.5421 -9095.6808 -7356.1555 297.8800 -846.4003 -830.0306 29757.6292 -610.3611 -548.3677
ENERGY: 600000 2.1295 10.5975 3.9445 0.0000 -10565.4917 1430.9151 0.0000 0.0000 1779.1921 -7338.7130 306.5674 -9117.9051 -7355.3507 298.4977 212.5845 260.3597 29386.7290 -344.9300 -269.7962
ENERGY: 900000 1.4348 13.0762 4.8852 0.0000 -10457.4107 1370.8545 0.0000 0.0000 1751.9185 -7315.2416 301.8680 -9067.1601 -7349.5899 299.4762 -371.0611 -356.4913 29904.2920 -384.9748 -318.5779
ENERGY: 1200000 2.1038 9.8759 6.1443 0.0000 -10375.7292 1362.4607 0.0000 0.0000 1727.9856 -7267.1588 297.7442 -8995.1444 -7343.5701 300.2440 -247.4519 -126.4025 29677.4385 -255.3290 -183.6549
ENERGY: 1500000 2.3989 23.3420 4.8588 0.0000 -10556.7576 1402.5865 0.0000 0.0000 1702.8122 -7420.7592 293.4066 -9123.5715 -7350.3904 299.1765 -350.8062 -334.3597 29575.1614 -186.9481 -119.1855
TCL: Running FEP window  20: Lambda1 0.049999999999999684 Lambda2 0.0    [dLambda -0.049999999999999684]
TCL: Setting parameter firsttimestep to 0
TCL: Setting parameter alchLambda to 0.049999999999999684
Info: NONBONDED TABLE R-SQUARED SPACING: 0.0625
Info: NONBONDED TABLE SIZE: 705 POINTS
TCL: Setting parameter alchLambda2 to 0.0
Info: NONBONDED TABLE R-SQUARED SPACING: 0.0625
Info: NONBONDED TABLE SIZE: 705 POINTS
TCL: Running for 1500000 steps
ETITLE: TS BOND ANGLE DIHED IMPRP ELECT VDW BOUNDARY MISC KINETIC TOTAL TEMP POTENTIAL TOTALAVG TEMPAVG PRESSURE GPRESSURE VOLUME PRESSAVG GPRESSAVG
ENERGY: 0 2.3989 23.3420 4.8588 0.0000 -10556.7573 1402.2735 0.0000 0.0000 1701.9309 -7421.9532 293.2548 -9123.8841 -7421.9532 293.2548 -415.2531 -336.8462 29575.1614 -415.2531 -336.8462
ENERGY: 300000 1.9204 10.4035 5.4406 0.0000 -10437.3712 1442.9590 0.0000 0.0000 1731.1250 -7245.5227 298.2851 -8976.6477 -7377.9897 292.9879 564.2459 622.2372 29670.4659 -165.5685 -116.0617
ENERGY: 600000 4.2848 15.8866 3.8961 0.0000 -10648.1078 1448.3394 0.0000 0.0000 1739.8543 -7435.8466 299.7893 -9175.7009 -7367.3221 297.0224 60.5245 163.3969 29516.9449 -250.5835 -197.4048
ENERGY: 900000 5.1626 13.0008 4.4778 0.0000 -10520.2552 1376.2875 0.0000 0.0000 1780.1093 -7341.2172 306.7255 -9121.3265 -7361.4394 298.2901 -550.0501 -509.3979 29789.3017 -221.1791 -171.4149
ENERGY: 1200000 2.5854 11.7019 5.7090 0.0000 -10550.3989 1389.7122 0.0000 0.0000 1701.4428 -7439.2477 293.1707 -9140.6905 -7361.8225 298.4904 -580.7240 -604.3127 29944.9912 -254.3481 -209.6235
ENERGY: 1500000 1.8889 11.5013 4.4185 0.0000 -10660.4407 1512.9539 0.0000 0.0000 1758.4984 -7371.1797 303.0018 -9129.6781 -7350.7810 299.8699 594.6188 619.3752 29670.5085 -108.4781 -65.6586
TCL: Exiting due to exit command.
