Info: SIMULATION PARAMETERS:
Info: TIMESTEP               2
Info: NUMBER OF STEPS        0
Info: STEPS PER CYCLE        10
Info: PERIODIC CELL BASIS 1  29.8604 0 0
Info: PERIODIC CELL BASIS 2  0 32.7778 0
Info: PERIODIC CELL BASIS 3  0 0 31.0031
Info: PERIODIC CELL CENTER   0 0 0
Info: WRAPPING WATERS AROUND PERIODIC BOUNDARIES ON OUTPUT.
Info: WRAPPING ALL CLUSTERS AROUND PERIODIC BOUNDARIES ON OUTPUT.
Info: FIRST LDB TIMESTEP     50
Info: LAST LDB TIMESTEP     -1
Info: HOM BACKGROUND SCALING 1
Info: PME BACKGROUND SCALING 1
Info: MIN ATOMS PER PATCH    40
Info: EMPTY PATCH LOAD       40 ATOMS
Info: VELOCITY FILE          mobley_9617923_equil.vel
Info: CENTER OF MASS MOVING INITIALLY? NO
Info: DIELECTRIC             1
Info: EXCLUDE                SCALED ONE-FOUR
Info: 1-4 ELECTROSTATICS SCALED BY 0.833333
Info: MODIFIED 1-4 VDW PARAMETERS WILL BE USED
Info: DCD FILENAME           mobley_9617923_prod.dcd
Info: DCD FREQUENCY          100000
Info: DCD FIRST STEP         100000
Info: DCD FILE WILL CONTAIN UNIT CELL DATA
Info: XST FILENAME           mobley_9617923_prod.xst
Info: XST FREQUENCY          100000
Info: NO VELOCITY DCD OUTPUT
Info: NO FORCE DCD OUTPUT
Info: OUTPUT FILENAME        mobley_9617923_prod
Info: BINARY OUTPUT FILES WILL BE USED
Info: RESTART FILENAME       mobley_9617923_prod.restart
Info: RESTART FREQUENCY      100000
Info: BINARY RESTART FILES WILL BE USED
Info: CUTOFF                 9
Info: PAIRLIST DISTANCE      11
Info: PAIRLIST SHRINK RATE   0.01
Info: PAIRLIST GROW RATE     0.01
Info: PAIRLIST TRIGGER       0.3
Info: PAIRLISTS PER CYCLE    2
Info: PAIRLISTS ENABLED
Info: MARGIN                 2
Info: HYDROGEN GROUP CUTOFF  2.5
Info: PATCH DIMENSION        15.5
Info: ENERGY OUTPUT STEPS    100000
Info: ENERGY EVALUATION STEPS    100000
Info: OUTPUT ENERGY PRECISION 4
Info: CROSSTERM ENERGY INCLUDED IN DIHEDRAL
Info: TIMING OUTPUT STEPS    1000000
Info: PRESSURE OUTPUT STEPS  100000
Info: ALCHEMICAL FEP ON
Info: FEP CURRENT LAMBDA VALUE     1
Info: FEP COMPARISON LAMBDA VALUE  0.95
Info: FEP INTRA-ALCHEMICAL NON-BONDED INTERACTIONS WILL BE RETAINED
Info: FEP INTRA-ALCHEMICAL BONDED INTERACTIONS WILL BE RETAINED
Info: FEP VDW SHIFTING COEFFICIENT 5
Info: FEP ELEC. ACTIVE FOR ANNIHILATED PARTICLES BETWEEN LAMBDA = 0 AND LAMBDA = 0.5
Info: FEP ELEC. ACTIVE FOR EXNIHILATED PARTICLES BETWEEN LAMBDA = 0.5 AND LAMBDA = 1
Info: FEP VDW ACTIVE FOR ANNIHILATED PARTICLES BETWEEN LAMBDA = 0 AND LAMBDA = 1
Info: FEP VDW ACTIVE FOR EXNIHILATED PARTICLES BETWEEN LAMBDA = 0 AND LAMBDA = 1
Info: FEP BOND ACTIVE FOR ANNIHILATED PARTICLES BETWEEN LAMBDA = 1 AND LAMBDA = 1
Info: FEP BOND ACTIVE FOR EXNIHILATED PARTICLES BETWEEN LAMBDA = 0 AND LAMBDA = 0
Info: LANGEVIN DYNAMICS ACTIVE
Info: LANGEVIN TEMPERATURE   300
Info: LANGEVIN USING BBK INTEGRATOR
Info: LANGEVIN DAMPING COEFFICIENT IS 1 INVERSE PS
Info: LANGEVIN DYNAMICS APPLIED TO HYDROGENS
Info: LANGEVIN PISTON PRESSURE CONTROL ACTIVE
Info:        TARGET PRESSURE IS 1.01325 BAR
Info:     OSCILLATION PERIOD IS 50 FS
Info:             DECAY TIME IS 25 FS
Info:     PISTON TEMPERATURE IS 300 K
Info:       PRESSURE CONTROL IS GROUP-BASED
Info:    INITIAL STRAIN RATE IS 0.000139561 0.000139561 0.000139561
Info:       CELL FLUCTUATION IS ISOTROPIC
Info: PARTICLE MESH EWALD (PME) ACTIVE
Info: PME TOLERANCE               1e-06
Info: PME EWALD COEFFICIENT       0.348832
Info: PME INTERPOLATION ORDER     4
Info: PME GRID DIMENSIONS         32 36 32
Info: PME MAXIMUM GRID SPACING    1
Info: PME CALCULATION WILL BE PERFORMED ON GPU
Info: FULL ELECTROSTATIC EVALUATION FREQUENCY      2
Info: USING VERLET I (r-RESPA) MTS SCHEME.
Info: C1 SPLITTING OF LONG RANGE ELECTROSTATICS
Info: PLACING ATOMS IN PATCHES BY HYDROGEN GROUPS
Info: RIGID BONDS TO HYDROGEN : ALL
Info:         ERROR TOLERANCE : 1e-08
Info:          MAX ITERATIONS : 100
Info: RIGID WATER USING SETTLE ALGORITHM
Info: RANDOM NUMBER SEED     1744083950
Info: USE HYDROGEN BONDS?    NO
Info: Using AMBER format force field!
Info: AMBER PARM FILE        mobley_9617923.prmtop
Info: COORDINATE PDB         mobley_9617923.pdb
Info: Exclusions will be read from PARM file!
Info: SCNB (VDW SCALING)     2
Info: USING ARITHMETIC MEAN TO COMBINE L-J SIGMA PARAMETERS
Info: BINARY COORDINATES     mobley_9617923_equil.coor
Info: SUMMARY OF PARAMETERS:
Info: 6 BONDS
Info: 7 ANGLES
Info:   7 HARMONIC
Info:   0 COSINE-BASED
Info: 11 DIHEDRAL
Info: 0 IMPROPER
Info: 0 CROSSTERM
Info: 0 VDW
Info: 21 VDW_PAIRS
Info: 0 NBTHOLE_PAIRS
Info: To read alchdata from file: mobley_9617923.pdb
Info: To read alchflag data from column: 5
Info: STRUCTURE SUMMARY:
Info: 2944 ATOMS
Info: 2943 BONDS
Info: 57 ANGLES
Info: 96 DIHEDRALS
Info: 0 IMPROPERS
Info: 0 CROSSTERMS
Info: 3075 EXCLUSIONS
Info: 2933 RIGID BONDS
Info: ALCH: 0 ATOMS TO DISAPPEAR IN FINAL STATE
Info: ALCH: 31 ATOMS TO APPEAR IN FINAL STATE
Info: 5899 DEGREES OF FREEDOM
Info: 982 HYDROGEN GROUPS
Info: 4 ATOMS IN LARGEST HYDROGEN GROUP
Info: 982 MIGRATION GROUPS
Info: 4 ATOMS IN LARGEST MIGRATION GROUP
Info: TOTAL MASS = 17649.8 amu
Info: TOTAL CHARGE = 0.0002 e
Info: MASS DENSITY = 0.965871 g/cm^3
Info: ATOM DENSITY = 0.0970193 atoms/A^3
Info: ADDED 0 IMPLICIT EXCLUSIONS
Info: NONBONDED TABLE R-SQUARED SPACING: 0.0625
Info: NONBONDED TABLE SIZE: 705 POINTS
Info: REMOVING COM VELOCITY -0.103308 0.0400607 0.0898299
Info: Use 3D box decompostion in PME FFT.
Info: Updated CUDA force table with 4096 elements.
Info: Updated CUDA LJ table with 6 x 6 elements.
Info: Found 34 unique exclusion lists needing 140 bytes
TCL: Running for 1500000 steps
ETITLE: TS BOND ANGLE DIHED IMPRP ELECT VDW BOUNDARY MISC KINETIC TOTAL TEMP POTENTIAL TOTALAVG TEMPAVG PRESSURE GPRESSURE VOLUME PRESSAVG GPRESSAVG
ENERGY: 0 2.8895 24.8793 7.7538 0.0000 -10560.1424 1379.2799 0.0000 0.0000 1770.1125 -7375.2274 302.0041 -9145.3399 -7375.2274 302.0041 -251.9574 -173.9184 30344.4926 -251.9574 -173.9184
ENERGY: 300000 1.5413 11.7623 8.1901 0.0000 -10586.2684 1336.8511 0.0000 0.0000 1811.9652 -7415.9584 309.1447 -9227.9236 -7394.8426 306.1739 -685.1331 -619.5482 30279.8941 -232.4989 -166.4453
ENERGY: 600000 7.7470 16.9225 9.1034 0.0000 -10701.1416 1429.8028 0.0000 0.0000 1747.3468 -7490.2191 298.1200 -9237.5659 -7418.4045 304.2553 -248.2551 -277.4153 30307.0376 -237.1094 -177.7320
ENERGY: 900000 1.8689 12.9955 9.8262 0.0000 -10539.7653 1365.7447 0.0000 0.0000 1789.9529 -7359.3770 305.3891 -9149.3299 -7412.8476 302.8072 -163.9818 -93.0253 30297.7203 -197.0113 -132.0738
ENERGY: 1200000 1.1734 18.3929 7.8903 0.0000 -10624.7576 1409.8030 0.0000 0.0000 1771.5010 -7415.9970 302.2410 -9187.4980 -7411.5456 302.1597 -12.5423 -37.8365 30529.4694 -225.9040 -170.3279
ENERGY: 1500000 2.3821 8.3444 8.7732 0.0000 -10553.6451 1432.4978 0.0000 0.0000 1816.1819 -7285.4657 309.8642 -9101.6477 -7402.2039 302.2235 630.3858 614.7878 30145.6851 -232.4116 -172.9309
TCL: Running FEP window   2: Lambda1 0.95   Lambda2 0.8999999999999999 [dLambda -0.050000000000000044]
TCL: Setting parameter firsttimestep to 0
TCL: Setting parameter alchLambda to 0.95
Info: NONBONDED TABLE R-SQUARED SPACING: 0.0625
Info: NONBONDED TABLE SIZE: 705 POINTS
TCL: Setting parameter alchLambda2 to 0.8999999999999999
Info: NONBONDED TABLE R-SQUARED SPACING: 0.0625
Info: NONBONDED TABLE SIZE: 705 POINTS
TCL: Running for 1500000 steps
ETITLE: TS BOND ANGLE DIHED IMPRP ELECT VDW BOUNDARY MISC KINETIC TOTAL TEMP POTENTIAL TOTALAVG TEMPAVG PRESSURE GPRESSURE VOLUME PRESSAVG GPRESSAVG
ENERGY: 0 2.3821 8.3444 8.7732 0.0000 -10551.7106 1432.2879 0.0000 0.0000 1815.2933 -7284.6297 309.7125 -9099.9231 -7284.6297 309.7125 522.1556 594.2639 30145.6851 522.1556 594.2639
ENERGY: 300000 3.3383 15.2345 7.6717 0.0000 -10609.8377 1434.4031 0.0000 0.0000 1764.8061 -7384.3839 301.0988 -9149.1901 -7353.7354 301.3231 241.8031 356.5354 30065.2142 485.9149 546.5737
ENERGY: 600000 2.4079 21.2475 6.8505 0.0000 -10786.2858 1446.6481 0.0000 0.0000 1779.6088 -7529.5229 303.6243 -9309.1318 -7400.8664 300.1837 -98.4301 -34.2509 29991.3994 273.8576 338.2826
ENERGY: 900000 1.9407 14.6614 8.4154 0.0000 -10515.4999 1303.0614 0.0000 0.0000 1739.9968 -7447.4242 296.8660 -9187.4210 -7415.5428 299.5757 -1139.3711 -1076.3848 30527.4008 98.4108 154.0035
ENERGY: 1200000 3.3698 17.5502 8.0775 0.0000 -10660.2684 1490.6591 0.0000 0.0000 1737.6203 -7402.9916 296.4605 -9140.6119 -7416.3459 299.4170 721.5375 755.3316 30373.2825 296.2638 344.9358
ENERGY: 1500000 3.6728 14.1395 9.8993 0.0000 -10704.3472 1442.4864 0.0000 0.0000 1723.7557 -7510.3934 294.0950 -9234.1491 -7427.1901 299.0625 23.2078 92.4480 30193.6905 230.5100 281.0098
TCL: Running FEP window   3: Lambda1 0.8999999999999999 Lambda2 0.8499999999999999 [dLambda -0.050000000000000044]
TCL: Setting parameter firsttimestep to 0
TCL: Setting parameter alchLambda to 0.8999999999999999
Info: NONBONDED TABLE R-SQUARED SPACING: 0.0625
Info: NONBONDED TABLE SIZE: 705 POINTS
TCL: Setting parameter alchLambda2 to 0.8499999999999999
Info: NONBONDED TABLE R-SQUARED SPACING: 0.0625
Info: NONBONDED TABLE SIZE: 705 POINTS
TCL: Running for 1500000 steps
ETITLE: TS BOND ANGLE DIHED IMPRP ELECT VDW BOUNDARY MISC KINETIC TOTAL TEMP POTENTIAL TOTALAVG TEMPAVG PRESSURE GPRESSURE VOLUME PRESSAVG GPRESSAVG
ENERGY: 0 3.6728 14.1395 9.8993 0.0000 -10703.3601 1442.5437 0.0000 0.0000 1722.8316 -7510.2730 293.9374 -9233.1046 -7510.2730 293.9374 -2.7165 74.9981 30193.6905 -2.7165 74.9981
ENERGY: 300000 4.0051 16.5146 8.0236 0.0000 -10641.3232 1385.0491 0.0000 0.0000 1734.5416 -7493.1891 295.9353 -9227.7308 -7439.0268 300.3550 -433.4926 -388.0111 30443.0859 -318.1548 -226.5703
ENERGY: 600000 4.2657 15.7903 8.3757 0.0000 -10685.8809 1456.0516 0.0000 0.0000 1762.8504 -7438.5472 300.7651 -9201.3975 -7427.9688 301.0692 520.6457 529.2334 30076.6075 -163.0880 -89.6109
ENERGY: 900000 4.3519 10.9219 7.8487 0.0000 -10666.0391 1461.1369 0.0000 0.0000 1778.2790 -7403.5006 303.3974 -9181.7796 -7425.1062 301.2675 498.5200 491.5180 30061.3501 10.0164 73.7051
ENERGY: 1200000 5.2603 8.4297 8.9477 0.0000 -10666.3233 1421.3467 0.0000 0.0000 1723.8357 -7498.5032 294.1087 -9222.3389 -7412.7578 301.6599 -443.3752 -351.3147 30595.3176 15.6514 78.3787
ENERGY: 1500000 6.6417 17.6615 7.3925 0.0000 -10579.1095 1433.7984 0.0000 0.0000 1744.4957 -7369.1197 297.6335 -9113.6154 -7408.5200 301.5713 474.3430 556.2369 29938.9502 -46.9274 11.3156
TCL: Running FEP window   4: Lambda1 0.8499999999999999 Lambda2 0.7999999999999998 [dLambda -0.050000000000000044]
TCL: Setting parameter firsttimestep to 0
TCL: Setting parameter alchLambda to 0.8499999999999999
Info: NONBONDED TABLE R-SQUARED SPACING: 0.0625
Info: NONBONDED TABLE SIZE: 705 POINTS
TCL: Setting parameter alchLambda2 to 0.7999999999999998
Info: NONBONDED TABLE R-SQUARED SPACING: 0.0625
Info: NONBONDED TABLE SIZE: 705 POINTS
TCL: Running for 1500000 steps
ETITLE: TS BOND ANGLE DIHED IMPRP ELECT VDW BOUNDARY MISC KINETIC TOTAL TEMP POTENTIAL TOTALAVG TEMPAVG PRESSURE GPRESSURE VOLUME PRESSAVG GPRESSAVG
ENERGY: 0 6.6417 17.6615 7.3925 0.0000 -10578.2341 1434.0742 0.0000 0.0000 1743.6420 -7368.8222 297.4879 -9112.4642 -7368.8222 297.4879 464.9110 544.9584 29938.9502 464.9110 544.9584
ENERGY: 300000 4.9489 16.9202 8.0009 0.0000 -10607.8373 1430.1745 0.0000 0.0000 1797.5451 -7350.2478 306.6845 -9147.7929 -7358.5542 299.4404 301.1814 303.8359 30128.6404 -165.0097 -123.3106
ENERGY: 600000 1.4377 12.4011 8.3697 0.0000 -10799.9428 1557.2829 0.0000 0.0000 1776.2407 -7444.2107 303.0497 -9220.4514 -7384.9970 299.8911 1008.5167 1037.8096 30256.0132 72.8172 112.4479
ENERGY: 900000 1.3251 13.3392 8.3481 0.0000 -10663.4719 1486.0631 0.0000 0.0000 1767.3080 -7387.0884 301.5256 -9154.3965 -7385.4841 300.7255 628.0584 706.2407 30152.1929 151.6490 201.4279
ENERGY: 1200000 3.1471 14.6870 8.2712 0.0000 -10581.1591 1376.9380 0.0000 0.0000 1700.4552 -7477.6606 290.1197 -9178.1158 -7415.2360 299.3469 -234.5209 -205.3770 29907.7207 70.7387 119.1641
ENERGY: 1500000 2.6099 16.1987 8.4780 0.0000 -10644.4216 1417.1291 0.0000 0.0000 1723.4597 -7476.5463 294.0445 -9200.0060 -7421.5995 298.7864 28.2423 38.7986 29995.8002 38.7889 79.2127
TCL: Running FEP window   5: Lambda1 0.7999999999999998 Lambda2 0.7499999999999998 [dLambda -0.050000000000000044]
TCL: Setting parameter firsttimestep to 0
TCL: Setting parameter alchLambda to 0.7999999999999998
Info: NONBONDED TABLE R-SQUARED SPACING: 0.0625
Info: NONBONDED TABLE SIZE: 705 POINTS
TCL: Setting parameter alchLambda2 to 0.7499999999999998
Info: NONBONDED TABLE R-SQUARED SPACING: 0.0625
Info: NONBONDED TABLE SIZE: 705 POINTS
TCL: Running for 1500000 steps
ETITLE: TS BOND ANGLE DIHED IMPRP ELECT VDW BOUNDARY MISC KINETIC TOTAL TEMP POTENTIAL TOTALAVG TEMPAVG PRESSURE GPRESSURE VOLUME PRESSAVG GPRESSAVG
ENERGY: 0 2.6099 16.1987 8.4780 0.0000 -10642.7560 1417.8420 0.0000 0.0000 1722.5949 -7475.0326 293.8970 -9197.6275 -7475.0326 293.8970 -52.4119 31.3012 29995.8002 -52.4119 31.3012
ENERGY: 300000 5.4102 16.2794 7.9964 0.0000 -10598.4503 1397.9153 0.0000 0.0000 1752.7205 -7418.1285 299.0368 -9170.8490 -7421.5663 297.2058 -225.9472 -221.4666 30209.2887 -57.2245 -3.1535
ENERGY: 600000 1.4283 15.7060 9.1746 0.0000 -10477.5959 1317.8088 0.0000 0.0000 1740.3064 -7393.1718 296.9188 -9133.4783 -7398.5145 298.2471 -824.7066 -756.7446 30639.3213 -177.6345 -116.5705
ENERGY: 900000 3.8149 16.1986 9.2678 0.0000 -10541.4531 1391.2541 0.0000 0.0000 1777.3077 -7343.6102 303.2317 -9120.9179 -7390.0320 299.1972 -36.2346 24.0649 30154.6318 -72.1950 -6.6360
ENERGY: 1200000 1.7393 11.9826 10.2396 0.0000 -10594.8952 1443.3251 0.0000 0.0000 1749.6522 -7377.9563 298.5133 -9127.6085 -7394.8056 299.2626 108.2404 207.2673 30573.3210 12.0962 75.9372
ENERGY: 1500000 0.9414 12.6314 9.2887 0.0000 -10662.8068 1427.1595 0.0000 0.0000 1712.6670 -7500.1189 292.2032 -9212.7858 -7417.0579 298.3707 -63.0752 -8.8978 30159.0007 53.5748 110.5941
TCL: Running FEP window   6: Lambda1 0.7499999999999998 Lambda2 0.6999999999999997 [dLambda -0.050000000000000044]
TCL: Setting parameter firsttimestep to 0
TCL: Setting parameter alchLambda to 0.7499999999999998
Info: NONBONDED TABLE R-SQUARED SPACING: 0.0625
Info: NONBONDED TABLE SIZE: 705 POINTS
TCL: Setting parameter alchLambda2 to 0.6999999999999997
Info: NONBONDED TABLE R-SQUARED SPACING: 0.0625
Info: NONBONDED TABLE SIZE: 705 POINTS
TCL: Running for 1500000 steps
ETITLE: TS BOND ANGLE DIHED IMPRP ELECT VDW BOUNDARY MISC KINETIC TOTAL TEMP POTENTIAL TOTALAVG TEMPAVG PRESSURE GPRESSURE VOLUME PRESSAVG GPRESSAVG
ENERGY: 0 0.9414 12.6314 9.2887 0.0000 -10661.4541 1426.9919 0.0000 0.0000 1711.7331 -7499.8676 292.0438 -9211.6007 -7499.8676 292.0438 -108.9589 -24.5478 30159.0007 -108.9589 -24.5478
ENERGY: 300000 1.9438 18.0792 7.3846 0.0000 -10687.6394 1491.5049 0.0000 0.0000 1719.5609 -7449.1661 293.3794 -9168.7270 -7443.2278 297.1786 520.2319 611.3085 30169.1664 -75.8506 27.4337
ENERGY: 600000 5.3628 17.4936 9.5155 0.0000 -10383.1303 1305.4251 0.0000 0.0000 1792.1716 -7253.1617 305.7677 -9045.3332 -7384.8221 300.9117 -581.4210 -579.7725 30599.0881 -301.4783 -223.1348
ENERGY: 900000 7.0459 14.5758 8.1733 0.0000 -10444.0735 1291.6982 0.0000 0.0000 1732.0986 -7390.4818 295.5185 -9122.5804 -7384.6711 300.8367 -902.2752 -860.0605 30507.7326 -185.0125 -121.6345
ENERGY: 1200000 2.7631 18.9914 7.6072 0.0000 -10704.9792 1470.1609 0.0000 0.0000 1791.8892 -7413.5675 305.7195 -9205.4566 -7400.8380 300.9997 37.1548 82.1012 30435.6840 -76.8725 -8.3051
ENERGY: 1500000 3.6439 11.2726 9.3190 0.0000 -10608.8554 1459.7975 0.0000 0.0000 1771.9011 -7352.9212 302.3093 -9124.8224 -7398.8442 300.6752 676.5132 710.6722 29823.7706 19.7720 83.2141
TCL: Running FEP window   7: Lambda1 0.6999999999999997 Lambda2 0.6499999999999997 [dLambda -0.050000000000000044]
TCL: Setting parameter firsttimestep to 0
TCL: Setting parameter alchLambda to 0.6999999999999997
Info: NONBONDED TABLE R-SQUARED SPACING: 0.0625
Info: NONBONDED TABLE SIZE: 705 POINTS
TCL: Setting parameter alchLambda2 to 0.6499999999999997
Info: NONBONDED TABLE R-SQUARED SPACING: 0.0625
Info: NONBONDED TABLE SIZE: 705 POINTS
TCL: Running for 1500000 steps
ETITLE: TS BOND ANGLE DIHED IMPRP ELECT VDW BOUNDARY MISC KINETIC TOTAL TEMP POTENTIAL TOTALAVG TEMPAVG PRESSURE GPRESSURE VOLUME PRESSAVG GPRESSAVG
ENERGY: 0 3.6439 11.2726 9.3190 0.0000 -10607.6352 1459.3482 0.0000 0.0000 1770.9991 -7353.0524 302.1554 -9124.0514 -7353.0524 302.1554 622.0486 696.5416 29823.7706 622.0486 696.5416
ENERGY: 300000 2.6213 11.7862 7.0458 0.0000 -10744.3249 1520.7566 0.0000 0.0000 1792.8870 -7409.2280 305.8897 -9202.1149 -7381.9585 301.9729 836.1814 870.5872 30018.0463 258.6741 336.2146
ENERGY: 600000 2.1443 14.9317 8.6719 0.0000 -10545.1650 1403.0518 0.0000 0.0000 1704.1834 -7412.1819 290.7557 -9116.3653 -7400.0063 299.7177 -262.3972 -202.2355 30666.1294 1.9840 72.9681
ENERGY: 900000 4.9265 19.0053 9.6877 0.0000 -10656.6228 1462.5910 0.0000 0.0000 1750.3778 -7410.0346 298.6371 -9160.4123 -7396.6208 300.1207 497.0389 460.4014 30134.4921 210.7727 266.1725
ENERGY: 1200000 4.6861 11.4785 8.6919 0.0000 -10709.7770 1536.7101 0.0000 0.0000 1764.9789 -7383.2315 301.1282 -9148.2103 -7401.1855 300.0618 1152.7218 1221.9492 29870.8031 260.3517 319.1150
ENERGY: 1500000 0.7947 15.6372 7.8253 0.0000 -10562.4599 1444.0481 0.0000 0.0000 1726.9627 -7367.1918 294.6422 -9094.1545 -7405.6620 299.0371 447.6947 447.4945 30529.7218 211.4262 268.7435
TCL: Running FEP window   8: Lambda1 0.6499999999999997 Lambda2 0.5999999999999996 [dLambda -0.050000000000000044]
TCL: Setting parameter firsttimestep to 0
TCL: Setting parameter alchLambda to 0.6499999999999997
Info: NONBONDED TABLE R-SQUARED SPACING: 0.0625
Info: NONBONDED TABLE SIZE: 705 POINTS
TCL: Setting parameter alchLambda2 to 0.5999999999999996
Info: NONBONDED TABLE R-SQUARED SPACING: 0.0625
Info: NONBONDED TABLE SIZE: 705 POINTS
TCL: Running for 1500000 steps
ETITLE: TS BOND ANGLE DIHED IMPRP ELECT VDW BOUNDARY MISC KINETIC TOTAL TEMP POTENTIAL TOTALAVG TEMPAVG PRESSURE GPRESSURE VOLUME PRESSAVG GPRESSAVG
ENERGY: 0 0.7947 15.6373 7.8253 0.0000 -10561.6211 1444.2692 0.0000 0.0000 1726.0844 -7367.0101 294.4924 -9093.0946 -7367.0101 294.4924 353.1922 439.6843 30529.7218 353.1922 439.6843
ENERGY: 300000 3.0932 17.2135 10.2681 0.0000 -10597.4979 1404.7706 0.0000 0.0000 1769.7968 -7392.3555 301.9503 -9162.1524 -7405.5528 300.7240 -113.0938 -35.7187 29954.4572 36.3284 113.6316
ENERGY: 600000 5.1363 18.0059 9.4936 0.0000 -10632.0762 1444.8654 0.0000 0.0000 1738.6783 -7415.8967 296.6410 -9154.5750 -7419.9729 299.1444 208.4250 248.1750 30507.5794 116.5903 178.1899
ENERGY: 900000 2.2724 15.6037 7.6612 0.0000 -10662.9421 1511.2069 0.0000 0.0000 1736.8009 -7389.3970 296.3207 -9126.1980 -7410.9092 298.0715 900.9337 986.4213 29999.9404 172.0114 233.7378
ENERGY: 1200000 2.6725 11.7033 10.4374 0.0000 -10647.6686 1451.9017 0.0000 0.0000 1819.3629 -7351.5906 310.4069 -9170.9536 -7408.8347 299.5950 229.7645 261.9059 30149.0670 179.5255 240.0766
ENERGY: 1500000 4.2226 19.2232 11.5074 0.0000 -10569.9239 1367.8267 0.0000 0.0000 1743.7882 -7423.3558 297.5128 -9167.1440 -7417.6745 298.9263 -476.7493 -384.4722 30103.9611 82.7764 148.6615
TCL: Running FEP window   9: Lambda1 0.5999999999999996 Lambda2 0.5499999999999996 [dLambda -0.050000000000000044]
TCL: Setting parameter firsttimestep to 0
TCL: Setting parameter alchLambda to 0.5999999999999996
Info: NONBONDED TABLE R-SQUARED SPACING: 0.0625
Info: NONBONDED TABLE SIZE: 705 POINTS
TCL: Setting parameter alchLambda2 to 0.5499999999999996
Info: NONBONDED TABLE R-SQUARED SPACING: 0.0625
Info: NONBONDED TABLE SIZE: 705 POINTS
TCL: Running for 1500000 steps
ETITLE: TS BOND ANGLE DIHED IMPRP ELECT VDW BOUNDARY MISC KINETIC TOTAL TEMP POTENTIAL TOTALAVG TEMPAVG PRESSURE GPRESSURE VOLUME PRESSAVG GPRESSAVG
ENERGY: 0 4.2226 19.2232 11.5074 0.0000 -10569.5626 1367.8058 0.0000 0.0000 1742.9353 -7423.8683 297.3673 -9166.8036 -7423.8683 297.3673 -466.1174 -396.8960 30103.9611 -466.1174 -396.8960
ENERGY: 300000 3.1879 17.5418 7.4948 0.0000 -10663.5259 1496.4462 0.0000 0.0000 1737.2063 -7401.6490 296.3899 -9138.8553 -7410.0104 298.5761 385.5396 444.7057 30488.5111 -75.5078 -27.9527
ENERGY: 600000 5.1224 18.9527 10.5766 0.0000 -10538.9031 1458.6190 0.0000 0.0000 1738.8781 -7306.7542 296.6751 -9045.6324 -7390.0422 299.1110 401.7969 485.2210 30194.7646 22.4756 73.3297
ENERGY: 900000 4.4877 16.8949 8.4607 0.0000 -10621.6878 1374.9283 0.0000 0.0000 1742.2535 -7474.6628 297.2510 -9216.9163 -7406.2487 297.5294 -424.2414 -417.1690 30035.4389 20.2274 70.1925
ENERGY: 1200000 2.5289 14.9974 6.6145 0.0000 -10609.7787 1403.9895 0.0000 0.0000 1710.3057 -7471.3426 291.8003 -9181.6484 -7410.4026 297.4512 -572.8130 -539.6967 30787.5724 -89.1800 -41.2205
ENERGY: 1500000 1.8516 13.5878 8.5686 0.0000 -10693.1484 1447.1516 0.0000 0.0000 1777.5045 -7444.4842 303.2653 -9221.9888 -7412.3692 297.5979 336.6541 430.0612 29591.3819 -59.5907 -4.9980
TCL: Running FEP window  10: Lambda1 0.5499999999999996 Lambda2 0.4999999999999996 [dLambda -0.04999999999999999]
TCL: Setting parameter firsttimestep to 0
TCL: Setting parameter alchLambda to 0.5499999999999996
Info: NONBONDED TABLE R-SQUARED SPACING: 0.0625
Info: NONBONDED TABLE SIZE: 705 POINTS
TCL: Setting parameter alchLambda2 to 0.4999999999999996
Info: NONBONDED TABLE R-SQUARED SPACING: 0.0625
Info: NONBONDED TABLE SIZE: 705 POINTS
TCL: Running for 1500000 steps
ETITLE: TS BOND ANGLE DIHED IMPRP ELECT VDW BOUNDARY MISC KINETIC TOTAL TEMP POTENTIAL TOTALAVG TEMPAVG PRESSURE GPRESSURE VOLUME PRESSAVG GPRESSAVG
ENERGY: 0 1.8516 13.5878 8.5686 0.0000 -10692.5811 1447.4264 0.0000 0.0000 1776.6872 -7444.4595 303.1258 -9221.1467 -7444.4595 303.1258 339.3215 423.8487 29591.3819 339.3215 423.8487
ENERGY: 300000 6.1020 18.1081 9.2354 0.0000 -10731.6850 1502.3816 0.0000 0.0000 1721.5087 -7474.3492 293.7117 -9195.8579 -7445.7745 297.8986 455.3557 522.4306 30287.7583 -80.6134 -10.5197
ENERGY: 600000 7.1455 18.5707 7.6250 0.0000 -10565.3208 1396.0545 0.0000 0.0000 1776.5495 -7359.3756 303.1023 -9135.9251 -7406.8219 300.3493 -12.7927 39.8404 29932.6686 -69.6454 9.8811
ENERGY: 900000 2.6977 17.6790 8.8474 0.0000 -10595.0607 1353.1879 0.0000 0.0000 1721.6242 -7491.0245 293.7314 -9212.6488 -7404.0389 300.1968 -704.9130 -604.3497 30214.0346 -76.8141 -2.6603
ENERGY: 1200000 2.1729 14.7123 6.9260 0.0000 -10722.6318 1454.2777 0.0000 0.0000 1784.1690 -7460.3739 304.4023 -9244.5429 -7414.0987 301.1144 274.8094 364.2050 30027.6443 28.0990 97.4534
ENERGY: 1500000 5.2364 14.2325 8.1924 0.0000 -10443.6211 1341.3939 0.0000 0.0000 1747.8708 -7326.6950 298.2094 -9074.5658 -7408.5000 300.7334 -405.9049 -353.4105 30599.5203 -80.7691 -17.2946
TCL: Running FEP window  11: Lambda1 0.4999999999999996 Lambda2 0.4499999999999996 [dLambda -0.04999999999999999]
TCL: Setting parameter firsttimestep to 0
TCL: Setting parameter alchLambda to 0.4999999999999996
Info: NONBONDED TABLE R-SQUARED SPACING: 0.0625
Info: NONBONDED TABLE SIZE: 705 POINTS
TCL: Setting parameter alchLambda2 to 0.4499999999999996
Info: NONBONDED TABLE R-SQUARED SPACING: 0.0625
Info: NONBONDED TABLE SIZE: 705 POINTS
TCL: Running for 1500000 steps
ETITLE: TS BOND ANGLE DIHED IMPRP ELECT VDW BOUNDARY MISC KINETIC TOTAL TEMP POTENTIAL TOTALAVG TEMPAVG PRESSURE GPRESSURE VOLUME PRESSAVG GPRESSAVG
ENERGY: 0 5.2364 14.2325 8.1924 0.0000 -10443.5223 1342.0757 0.0000 0.0000 1746.9800 -7326.8053 298.0574 -9073.7853 -7326.8053 298.0574 -435.0999 -353.3465 30599.5203 -435.0999 -353.3465
ENERGY: 300000 2.3749 12.9209 6.8385 0.0000 -10727.9474 1463.4534 0.0000 0.0000 1745.4182 -7496.9417 297.7909 -9242.3598 -7425.8584 296.4590 135.1249 135.1661 29991.6149 -146.1331 -85.5538
ENERGY: 600000 2.4413 12.5654 8.0175 0.0000 -10494.8880 1321.5689 0.0000 0.0000 1715.4300 -7434.8648 292.6746 -9150.2949 -7410.3976 298.3972 -871.5813 -766.0468 29994.4526 -211.9221 -154.5309
ENERGY: 900000 6.4654 19.2061 10.4885 0.0000 -10657.7351 1489.2092 0.0000 0.0000 1734.4791 -7397.8867 295.9246 -9132.3659 -7414.6238 298.5902 292.0834 369.0156 30372.9146 0.5288 57.0127
ENERGY: 1200000 2.6109 14.7026 6.6987 0.0000 -10457.6297 1309.6883 0.0000 0.0000 1764.3501 -7359.5792 301.0210 -9123.9293 -7405.5893 299.1145 -754.7714 -685.3999 30333.6946 -106.6803 -44.9497
ENERGY: 1500000 1.8141 20.9182 8.4987 0.0000 -10626.4117 1427.3541 0.0000 0.0000 1807.5107 -7360.3159 308.3847 -9167.8265 -7397.8043 299.9954 -78.8214 -20.7697 30625.7592 21.8433 88.4115
TCL: Running FEP window  12: Lambda1 0.4499999999999996 Lambda2 0.39999999999999963 [dLambda -0.04999999999999999]
TCL: Setting parameter firsttimestep to 0
TCL: Setting parameter alchLambda to 0.4499999999999996
Info: NONBONDED TABLE R-SQUARED SPACING: 0.0625
Info: NONBONDED TABLE SIZE: 705 POINTS
TCL: Setting parameter alchLambda2 to 0.39999999999999963
Info: NONBONDED TABLE R-SQUARED SPACING: 0.0625
Info: NONBONDED TABLE SIZE: 705 POINTS
TCL: Running for 1500000 steps
ETITLE: TS BOND ANGLE DIHED IMPRP ELECT VDW BOUNDARY MISC KINETIC TOTAL TEMP POTENTIAL TOTALAVG TEMPAVG PRESSURE GPRESSURE VOLUME PRESSAVG GPRESSAVG
ENERGY: 0 1.8141 20.9182 8.4987 0.0000 -10626.4112 1427.7497 0.0000 0.0000 1806.6785 -7360.7519 308.2427 -9167.4305 -7360.7519 308.2427 -108.6483 -28.0948 30625.7592 -108.6483 -28.0948
ENERGY: 300000 2.5478 24.1451 7.7367 0.0000 -10638.2729 1380.6170 0.0000 0.0000 1713.9356 -7509.2907 292.4196 -9223.2262 -7438.8090 299.7177 -378.0104 -312.1561 29991.6187 -124.1726 -76.8889
ENERGY: 600000 1.6637 11.6376 10.0499 0.0000 -10539.6528 1352.3436 0.0000 0.0000 1788.0380 -7375.9200 305.0624 -9163.9580 -7413.7910 301.1543 -421.7191 -361.6932 30058.0671 -228.8575 -178.9634
ENERGY: 900000 3.6410 14.1493 8.9095 0.0000 -10810.5075 1542.2455 0.0000 0.0000 1797.0891 -7444.4732 306.6067 -9241.5623 -7413.4705 302.5216 1010.1839 1095.3918 29489.7662 -141.8873 -85.7635
ENERGY: 1200000 2.9096 13.1322 9.0329 0.0000 -10597.7311 1430.5022 0.0000 0.0000 1784.8942 -7357.2600 304.5261 -9142.1542 -7403.9971 302.6401 248.8264 365.0387 29941.5522 -9.9305 51.1627
ENERGY: 1500000 5.4422 13.6958 7.2236 0.0000 -10748.1317 1468.6911 0.0000 0.0000 1755.2239 -7497.8550 299.4639 -9253.0789 -7408.2690 301.8712 -178.2548 -97.9284 30136.4721 -21.2656 36.3075
TCL: Running FEP window  13: Lambda1 0.39999999999999963 Lambda2 0.34999999999999964 [dLambda -0.04999999999999999]
TCL: Setting parameter firsttimestep to 0
TCL: Setting parameter alchLambda to 0.39999999999999963
Info: NONBONDED TABLE R-SQUARED SPACING: 0.0625
Info: NONBONDED TABLE SIZE: 705 POINTS
TCL: Setting parameter alchLambda2 to 0.34999999999999964
Info: NONBONDED TABLE R-SQUARED SPACING: 0.0625
Info: NONBONDED TABLE SIZE: 705 POINTS
TCL: Running for 1500000 steps
ETITLE: TS BOND ANGLE DIHED IMPRP ELECT VDW BOUNDARY MISC KINETIC TOTAL TEMP POTENTIAL TOTALAVG TEMPAVG PRESSURE GPRESSURE VOLUME PRESSAVG GPRESSAVG
ENERGY: 0 5.4422 13.6958 7.2236 0.0000 -10748.1310 1469.0894 0.0000 0.0000 1754.3371 -7498.3429 299.3126 -9252.6800 -7498.3429 299.3126 -181.1824 -106.6229 30136.4721 -181.1824 -106.6229
ENERGY: 300000 2.2277 12.7007 7.6884 0.0000 -10593.1195 1389.6851 0.0000 0.0000 1804.7403 -7376.0772 307.9121 -9180.8175 -7447.4006 301.3467 -72.0773 41.7620 29678.6742 -61.6037 12.9059
ENERGY: 600000 2.6159 18.0134 11.7183 0.0000 -10572.8850 1378.4511 0.0000 0.0000 1722.0128 -7440.0734 293.7977 -9162.0862 -7422.7310 300.7209 -492.3025 -472.3337 30533.2969 -28.4319 44.4014
ENERGY: 900000 2.8409 13.3940 6.5705 0.0000 -10596.4862 1410.2215 0.0000 0.0000 1729.0874 -7434.3719 295.0047 -9163.4592 -7426.3596 299.6384 -82.9920 44.8484 29915.0896 36.4363 112.5638
ENERGY: 1200000 3.9389 10.2649 8.4902 0.0000 -10520.9353 1416.4242 0.0000 0.0000 1795.3817 -7286.4355 306.3154 -9081.8172 -7409.6645 300.2734 82.6186 133.2489 30363.1959 20.9597 91.3632
ENERGY: 1500000 2.6554 15.8344 9.2865 0.0000 -10480.6660 1335.4697 0.0000 0.0000 1787.5053 -7329.9147 304.9715 -9117.4199 -7402.4990 300.8146 -623.7029 -610.4367 30270.0019 -18.7547 45.6041
TCL: Running FEP window  14: Lambda1 0.34999999999999964 Lambda2 0.29999999999999966 [dLambda -0.04999999999999999]
TCL: Setting parameter firsttimestep to 0
TCL: Setting parameter alchLambda to 0.34999999999999964
Info: NONBONDED TABLE R-SQUARED SPACING: 0.0625
Info: NONBONDED TABLE SIZE: 705 POINTS
TCL: Setting parameter alchLambda2 to 0.29999999999999966
Info: NONBONDED TABLE R-SQUARED SPACING: 0.0625
Info: NONBONDED TABLE SIZE: 705 POINTS
TCL: Running for 1500000 steps
ETITLE: TS BOND ANGLE DIHED IMPRP ELECT VDW BOUNDARY MISC KINETIC TOTAL TEMP POTENTIAL TOTALAVG TEMPAVG PRESSURE GPRESSURE VOLUME PRESSAVG GPRESSAVG
ENERGY: 0 2.6554 15.8344 9.2865 0.0000 -10480.6657 1336.0239 0.0000 0.0000 1786.6264 -7330.2390 304.8216 -9116.8655 -7330.2390 304.8216 -695.0365 -616.3115 30270.0019 -695.0365 -616.3115
ENERGY: 300000 4.3781 19.0959 8.5580 0.0000 -10655.4417 1472.3295 0.0000 0.0000 1813.3708 -7337.7094 309.3845 -9151.0801 -7399.3785 299.5333 728.9294 775.6065 29787.2942 -215.6014 -138.5775
ENERGY: 600000 5.1673 12.7328 10.7527 0.0000 -10526.1779 1346.3939 0.0000 0.0000 1757.6880 -7393.4433 299.8843 -9151.1313 -7402.3910 299.4722 -889.2420 -816.5617 30209.3442 -215.8015 -147.7388
ENERGY: 900000 3.5756 11.3215 7.9691 0.0000 -10547.4972 1467.4522 0.0000 0.0000 1787.9433 -7269.2357 305.0463 -9057.1789 -7387.5423 299.4929 378.5041 441.2533 30663.5888 -121.7429 -71.7982
ENERGY: 1200000 1.8818 15.3252 9.4403 0.0000 -10533.8890 1388.9258 0.0000 0.0000 1751.5398 -7366.7761 298.8354 -9118.3159 -7391.3746 299.9323 -238.7540 -174.1796 30334.6321 -144.7642 -87.2276
ENERGY: 1500000 3.4474 18.1862 9.4448 0.0000 -10517.4866 1385.3270 0.0000 0.0000 1756.9229 -7344.1582 299.7538 -9101.0811 -7382.1901 300.0797 -128.8357 -79.5321 30248.0353 -162.1949 -106.5186
TCL: Running FEP window  15: Lambda1 0.29999999999999966 Lambda2 0.24999999999999967 [dLambda -0.04999999999999999]
TCL: Setting parameter firsttimestep to 0
TCL: Setting parameter alchLambda to 0.29999999999999966
Info: NONBONDED TABLE R-SQUARED SPACING: 0.0625
Info: NONBONDED TABLE SIZE: 705 POINTS
TCL: Setting parameter alchLambda2 to 0.24999999999999967
Info: NONBONDED TABLE R-SQUARED SPACING: 0.0625
Info: NONBONDED TABLE SIZE: 705 POINTS
TCL: Running for 1500000 steps
ETITLE: TS BOND ANGLE DIHED IMPRP ELECT VDW BOUNDARY MISC KINETIC TOTAL TEMP POTENTIAL TOTALAVG TEMPAVG PRESSURE GPRESSURE VOLUME PRESSAVG GPRESSAVG
ENERGY: 0 3.4474 18.1862 9.4448 0.0000 -10517.4862 1385.3375 0.0000 0.0000 1756.0459 -7345.0244 299.6042 -9101.0703 -7345.0244 299.6042 -163.5934 -89.8876 30248.0353 -163.5934 -89.8876
ENERGY: 300000 3.4613 16.1215 8.8989 0.0000 -10572.3370 1373.2181 0.0000 0.0000 1703.3026 -7467.3345 290.6055 -9170.6371 -7364.7479 300.0266 -445.8695 -412.0258 30342.7007 4.6294 80.6935
ENERGY: 600000 3.5183 15.6214 8.7122 0.0000 -10526.2959 1365.4887 0.0000 0.0000 1738.2591 -7394.6962 296.5695 -9132.9553 -7382.6117 298.6993 -645.8540 -587.1329 30427.7212 -127.0826 -42.7710
ENERGY: 900000 6.1142 14.7116 8.1638 0.0000 -10583.5207 1411.3532 0.0000 0.0000 1749.3527 -7393.8252 298.4622 -9143.1780 -7387.5945 299.3800 -220.6894 -144.4827 30087.5893 -233.2786 -157.6105
ENERGY: 1200000 0.9297 14.2370 6.1692 0.0000 -10510.4056 1324.3886 0.0000 0.0000 1825.1386 -7339.5424 311.3923 -9164.6810 -7382.5271 300.8991 -865.1732 -821.5426 30379.2212 -300.7529 -233.3874
ENERGY: 1500000 8.0261 16.2285 11.5121 0.0000 -10569.0507 1381.1534 0.0000 0.0000 1757.2511 -7394.8795 299.8098 -9152.1305 -7396.1006 300.3022 -496.1387 -472.5866 30174.2452 -257.3395 -191.4108
TCL: Running FEP window  16: Lambda1 0.24999999999999967 Lambda2 0.19999999999999968 [dLambda -0.04999999999999999]
TCL: Setting parameter firsttimestep to 0
TCL: Setting parameter alchLambda to 0.24999999999999967
Info: NONBONDED TABLE R-SQUARED SPACING: 0.0625
Info: NONBONDED TABLE SIZE: 705 POINTS
TCL: Setting parameter alchLambda2 to 0.19999999999999968
Info: NONBONDED TABLE R-SQUARED SPACING: 0.0625
Info: NONBONDED TABLE SIZE: 705 POINTS
TCL: Running for 1500000 steps
ETITLE: TS BOND ANGLE DIHED IMPRP ELECT VDW BOUNDARY MISC KINETIC TOTAL TEMP POTENTIAL TOTALAVG TEMPAVG PRESSURE GPRESSURE VOLUME PRESSAVG GPRESSAVG
ENERGY: 0 8.0262 16.2285 11.5121 0.0000 -10569.0527 1381.6409 0.0000 0.0000 1756.3892 -7395.2558 299.6627 -9151.6450 -7395.2558 299.6627 -558.9560 -477.0589 30174.2452 -558.9560 -477.0589
ENERGY: 300000 3.3044 11.5128 7.4258 0.0000 -10646.8618 1491.0030 0.0000 0.0000 1713.0138 -7420.6020 292.2623 -9133.6158 -7433.9161 293.8037 291.6372 341.9723 30386.2454 -197.6968 -141.5846
ENERGY: 600000 3.2872 14.9727 7.4957 0.0000 -10613.4890 1454.4146 0.0000 0.0000 1801.5496 -7331.7692 307.3677 -9133.3188 -7405.9903 297.9744 347.0634 357.3907 30199.8767 -89.9061 -47.1619
ENERGY: 900000 3.0151 13.5862 9.9160 0.0000 -10704.2139 1468.9332 0.0000 0.0000 1800.0348 -7408.7285 307.1092 -9208.7634 -7400.5196 299.4764 432.0447 449.3969 30004.1800 12.2306 56.1516
ENERGY: 1200000 5.7038 12.7451 8.4590 0.0000 -10567.3689 1407.6653 0.0000 0.0000 1715.6903 -7417.1054 292.7190 -9132.7957 -7402.1724 298.4129 -311.4499 -275.1014 30535.9322 -17.3424 27.6884
ENERGY: 1500000 5.4458 17.8064 7.1467 0.0000 -10604.7538 1455.6390 0.0000 0.0000 1775.1460 -7343.5700 302.8629 -9118.7160 -7393.3508 298.8831 356.4522 490.5260 30235.9016 40.9045 84.5039
TCL: Running FEP window  17: Lambda1 0.19999999999999968 Lambda2 0.1499999999999997 [dLambda -0.04999999999999999]
TCL: Setting parameter firsttimestep to 0
TCL: Setting parameter alchLambda to 0.19999999999999968
Info: NONBONDED TABLE R-SQUARED SPACING: 0.0625
Info: NONBONDED TABLE SIZE: 705 POINTS
TCL: Setting parameter alchLambda2 to 0.1499999999999997
Info: NONBONDED TABLE R-SQUARED SPACING: 0.0625
Info: NONBONDED TABLE SIZE: 705 POINTS
TCL: Running for 1500000 steps
ETITLE: TS BOND ANGLE DIHED IMPRP ELECT VDW BOUNDARY MISC KINETIC TOTAL TEMP POTENTIAL TOTALAVG TEMPAVG PRESSURE GPRESSURE VOLUME PRESSAVG GPRESSAVG
ENERGY: 0 5.4458 17.8063 7.1467 0.0000 -10604.7551 1455.7359 0.0000 0.0000 1774.2702 -7344.3502 302.7135 -9118.6205 -7344.3502 302.7135 381.1611 485.7278 30235.9016 381.1611 485.7278
ENERGY: 300000 3.2269 17.3038 7.3212 0.0000 -10559.4183 1376.1222 0.0000 0.0000 1776.8749 -7378.5693 303.1579 -9155.4442 -7381.4913 299.5215 -698.2789 -600.7221 30646.2059 -90.7525 -37.6316
ENERGY: 600000 2.1482 14.1093 8.5230 0.0000 -10632.1299 1416.1169 0.0000 0.0000 1716.6555 -7474.5770 292.8837 -9191.2325 -7413.5599 297.3475 -322.8552 -250.0833 30384.2320 -145.7525 -110.7759
ENERGY: 900000 1.5894 15.3472 7.2151 0.0000 -10768.7605 1451.6170 0.0000 0.0000 1728.6136 -7564.3782 294.9239 -9292.9918 -7442.0140 297.3725 67.1044 53.3475 29814.7073 -63.2030 -38.9348
ENERGY: 1200000 3.1705 13.0118 7.7290 0.0000 -10591.1675 1472.8766 0.0000 0.0000 1706.1506 -7388.2290 291.0914 -9094.3796 -7425.0150 298.2366 345.9878 435.7911 30596.2577 53.9191 85.1886
ENERGY: 1500000 5.6575 18.0966 7.4993 0.0000 -10454.5840 1360.1817 0.0000 0.0000 1778.5989 -7284.5499 303.4520 -9063.1489 -7406.3038 298.9272 -575.7493 -517.4464 30522.8697 -43.6822 -1.0172
TCL: Running FEP window  18: Lambda1 0.1499999999999997 Lambda2 0.09999999999999969 [dLambda -0.05 ]
TCL: Setting parameter firsttimestep to 0
TCL: Setting parameter alchLambda to 0.1499999999999997
Info: NONBONDED TABLE R-SQUARED SPACING: 0.0625
Info: NONBONDED TABLE SIZE: 705 POINTS
TCL: Setting parameter alchLambda2 to 0.09999999999999969
Info: NONBONDED TABLE R-SQUARED SPACING: 0.0625
Info: NONBONDED TABLE SIZE: 705 POINTS
TCL: Running for 1500000 steps
ETITLE: TS BOND ANGLE DIHED IMPRP ELECT VDW BOUNDARY MISC KINETIC TOTAL TEMP POTENTIAL TOTALAVG TEMPAVG PRESSURE GPRESSURE VOLUME PRESSAVG GPRESSAVG
ENERGY: 0 5.6576 18.0966 7.4993 0.0000 -10454.5859 1360.4325 0.0000 0.0000 1777.6884 -7285.2114 303.2967 -9062.8998 -7285.2114 303.2967 -610.6273 -521.2747 30522.8697 -610.6273 -521.2747
ENERGY: 300000 2.9627 18.2397 8.3822 0.0000 -10600.2153 1417.0610 0.0000 0.0000 1767.3726 -7386.1971 301.5366 -9153.5697 -7328.6674 300.5542 -333.9809 -264.9011 30282.7990 -334.4601 -270.6365
ENERGY: 600000 3.5695 12.7627 7.6145 0.0000 -10739.8208 1496.1190 0.0000 0.0000 1753.3784 -7466.3767 299.1491 -9219.7551 -7373.3910 300.3661 485.5072 530.0145 29640.9510 -124.1666 -58.1032
ENERGY: 900000 2.1974 10.8450 6.8040 0.0000 -10659.3292 1448.4263 0.0000 0.0000 1711.3844 -7479.6722 291.9843 -9191.0566 -7393.4206 298.2307 -256.9304 -134.9331 30475.1729 -127.7421 -56.2860
ENERGY: 1200000 1.3111 13.8791 7.5028 0.0000 -10687.7041 1433.5829 0.0000 0.0000 1776.8343 -7454.5938 303.1509 -9231.4281 -7394.6490 299.5591 -134.4890 -98.5589 30175.5076 -70.5228 -6.0902
ENERGY: 1500000 3.9762 14.4269 9.9203 0.0000 -10646.3816 1441.3432 0.0000 0.0000 1779.7852 -7396.9297 303.6544 -9176.7149 -7400.1807 299.3998 12.3022 28.6369 30026.3332 11.6144 73.7582
TCL: Running FEP window  19: Lambda1 0.09999999999999969 Lambda2 0.049999999999999684 [dLambda -0.05 ]
TCL: Setting parameter firsttimestep to 0
TCL: Setting parameter alchLambda to 0.09999999999999969
Info: NONBONDED TABLE R-SQUARED SPACING: 0.0625
Info: NONBONDED TABLE SIZE: 705 POINTS
TCL: Setting parameter alchLambda2 to 0.049999999999999684
Info: NONBONDED TABLE R-SQUARED SPACING: 0.0625
Info: NONBONDED TABLE SIZE: 705 POINTS
TCL: Running for 1500000 steps
ETITLE: TS BOND ANGLE DIHED IMPRP ELECT VDW BOUNDARY MISC KINETIC TOTAL TEMP POTENTIAL TOTALAVG TEMPAVG PRESSURE GPRESSURE VOLUME PRESSAVG GPRESSAVG
ENERGY: 0 3.9763 14.4269 9.9203 0.0000 -10646.3820 1441.1542 0.0000 0.0000 1778.8903 -7398.0141 303.5017 -9176.9044 -7398.0141 303.5017 -66.5897 21.7231 30026.3332 -66.5897 21.7231
ENERGY: 300000 4.7318 14.5088 8.2014 0.0000 -10706.8174 1481.3196 0.0000 0.0000 1727.5665 -7470.4893 294.7452 -9198.0558 -7428.5388 299.0588 536.6944 610.5669 29642.7348 -122.7180 -61.5726
ENERGY: 600000 1.2386 12.5488 8.8773 0.0000 -10711.6529 1477.6418 0.0000 0.0000 1719.9822 -7491.3643 293.4512 -9211.3465 -7431.7572 297.5054 217.0851 258.0814 30043.9150 -133.9279 -82.5903
ENERGY: 900000 5.1749 15.5641 7.0442 0.0000 -10508.9712 1335.6046 0.0000 0.0000 1725.8282 -7419.7552 294.4486 -9145.5834 -7427.9252 298.2023 -900.4759 -852.4820 30078.5792 -120.8005 -60.1129
ENERGY: 1200000 5.2398 15.2386 7.4042 0.0000 -10672.2233 1428.7084 0.0000 0.0000 1744.0129 -7471.6194 297.5512 -9215.6323 -7428.1761 299.0889 -398.7535 -332.2637 30049.2813 -31.5915 28.5860
ENERGY: 1500000 3.3572 16.1204 7.4933 0.0000 -10616.2116 1394.0087 0.0000 0.0000 1743.5734 -7451.6586 297.4762 -9195.2319 -7421.1482 299.7382 -567.3418 -519.1734 30404.1097 -64.9440 -2.8449
TCL: Running FEP window  20: Lambda1 0.049999999999999684 Lambda2 0.0    [dLambda -0.049999999999999684]
TCL: Setting parameter firsttimestep to 0
TCL: Setting parameter alchLambda to 0.049999999999999684
Info: NONBONDED TABLE R-SQUARED SPACING: 0.0625
Info: NONBONDED TABLE SIZE: 705 POINTS
TCL: Setting parameter alchLambda2 to 0.0
Info: NONBONDED TABLE R-SQUARED SPACING: 0.0625
Info: NONBONDED TABLE SIZE: 705 POINTS
TCL: Running for 1500000 steps
ETITLE: TS BOND ANGLE DIHED IMPRP ELECT VDW BOUNDARY MISC KINETIC TOTAL TEMP POTENTIAL TOTALAVG TEMPAVG PRESSURE GPRESSURE VOLUME PRESSAVG GPRESSAVG
ENERGY: 0 3.3572 16.1204 7.4933 0.0000 -10616.2118 1392.3721 0.0000 0.0000 1742.6904 -7454.1784 297.3255 -9196.8688 -7454.1784 297.3255 -624.2744 -527.7079 30404.1097 -624.2744 -527.7079
ENERGY: 300000 5.9163 11.5153 8.3528 0.0000 -10601.8252 1372.4927 0.0000 0.0000 1780.7786 -7422.7694 303.8239 -9203.5480 -7416.7738 303.2264 -858.8193 -830.2671 30589.7826 -276.4627 -205.3618
ENERGY: 600000 2.5613 16.1537 7.4243 0.0000 -10564.5505 1428.5269 0.0000 0.0000 1748.8310 -7361.0532 298.3732 -9109.8843 -7400.6170 301.2453 244.5163 214.2641 29911.0657 -57.7248 -3.7932
ENERGY: 900000 3.2803 7.6642 11.5928 0.0000 -10577.8299 1357.6349 0.0000 0.0000 1698.5328 -7499.1249 289.7917 -9197.6577 -7409.0553 299.0652 -1001.7871 -938.8434 30592.0048 -146.8970 -96.5099
ENERGY: 1200000 5.8649 15.0982 8.4217 0.0000 -10648.1936 1453.6583 0.0000 0.0000 1732.3636 -7432.7869 295.5637 -9165.1506 -7412.5194 298.5140 -365.5933 -310.8031 30300.6754 -55.5822 -5.3056
ENERGY: 1500000 3.9585 11.5207 7.3762 0.0000 -10783.1784 1446.2179 0.0000 0.0000 1755.0799 -7559.0251 299.4394 -9314.1050 -7427.4577 298.0741 -104.8836 -57.9376 29508.0921 -129.7480 -80.0531
TCL: Exiting due to exit command.
