Info: SIMULATION PARAMETERS:
Info: TIMESTEP               2
Info: NUMBER OF STEPS        0
Info: STEPS PER CYCLE        10
Info: PERIODIC CELL BASIS 1  30.2351 0 0
Info: PERIODIC CELL BASIS 2  0 32.4934 0
Info: PERIODIC CELL BASIS 3  0 0 30.6532
Info: PERIODIC CELL CENTER   0 0 0
Info: WRAPPING WATERS AROUND PERIODIC BOUNDARIES ON OUTPUT.
Info: WRAPPING ALL CLUSTERS AROUND PERIODIC BOUNDARIES ON OUTPUT.
Info: FIRST LDB TIMESTEP     50
Info: LAST LDB TIMESTEP     -1
Info: HOM BACKGROUND SCALING 1
Info: PME BACKGROUND SCALING 1
Info: MIN ATOMS PER PATCH    40
Info: EMPTY PATCH LOAD       40 ATOMS
Info: VELOCITY FILE          mobley_3686115_equil.vel
Info: CENTER OF MASS MOVING INITIALLY? NO
Info: DIELECTRIC             1
Info: EXCLUDE                SCALED ONE-FOUR
Info: 1-4 ELECTROSTATICS SCALED BY 0.833333
Info: MODIFIED 1-4 VDW PARAMETERS WILL BE USED
Info: DCD FILENAME           mobley_3686115_prod.dcd
Info: DCD FREQUENCY          100000
Info: DCD FIRST STEP         100000
Info: DCD FILE WILL CONTAIN UNIT CELL DATA
Info: XST FILENAME           mobley_3686115_prod.xst
Info: XST FREQUENCY          100000
Info: NO VELOCITY DCD OUTPUT
Info: NO FORCE DCD OUTPUT
Info: OUTPUT FILENAME        mobley_3686115_prod
Info: BINARY OUTPUT FILES WILL BE USED
Info: RESTART FILENAME       mobley_3686115_prod.restart
Info: RESTART FREQUENCY      100000
Info: BINARY RESTART FILES WILL BE USED
Info: CUTOFF                 9
Info: PAIRLIST DISTANCE      11
Info: PAIRLIST SHRINK RATE   0.01
Info: PAIRLIST GROW RATE     0.01
Info: PAIRLIST TRIGGER       0.3
Info: PAIRLISTS PER CYCLE    2
Info: PAIRLISTS ENABLED
Info: MARGIN                 2
Info: HYDROGEN GROUP CUTOFF  2.5
Info: PATCH DIMENSION        15.5
Info: ENERGY OUTPUT STEPS    100000
Info: ENERGY EVALUATION STEPS    100000
Info: OUTPUT ENERGY PRECISION 4
Info: CROSSTERM ENERGY INCLUDED IN DIHEDRAL
Info: TIMING OUTPUT STEPS    1000000
Info: PRESSURE OUTPUT STEPS  100000
Info: ALCHEMICAL FEP ON
Info: FEP CURRENT LAMBDA VALUE     1
Info: FEP COMPARISON LAMBDA VALUE  0.95
Info: FEP INTRA-ALCHEMICAL NON-BONDED INTERACTIONS WILL BE RETAINED
Info: FEP INTRA-ALCHEMICAL BONDED INTERACTIONS WILL BE RETAINED
Info: FEP VDW SHIFTING COEFFICIENT 5
Info: FEP ELEC. ACTIVE FOR ANNIHILATED PARTICLES BETWEEN LAMBDA = 0 AND LAMBDA = 0.5
Info: FEP ELEC. ACTIVE FOR EXNIHILATED PARTICLES BETWEEN LAMBDA = 0.5 AND LAMBDA = 1
Info: FEP VDW ACTIVE FOR ANNIHILATED PARTICLES BETWEEN LAMBDA = 0 AND LAMBDA = 1
Info: FEP VDW ACTIVE FOR EXNIHILATED PARTICLES BETWEEN LAMBDA = 0 AND LAMBDA = 1
Info: FEP BOND ACTIVE FOR ANNIHILATED PARTICLES BETWEEN LAMBDA = 1 AND LAMBDA = 1
Info: FEP BOND ACTIVE FOR EXNIHILATED PARTICLES BETWEEN LAMBDA = 0 AND LAMBDA = 0
Info: LANGEVIN DYNAMICS ACTIVE
Info: LANGEVIN TEMPERATURE   300
Info: LANGEVIN USING BBK INTEGRATOR
Info: LANGEVIN DAMPING COEFFICIENT IS 1 INVERSE PS
Info: LANGEVIN DYNAMICS APPLIED TO HYDROGENS
Info: LANGEVIN PISTON PRESSURE CONTROL ACTIVE
Info:        TARGET PRESSURE IS 1.01325 BAR
Info:     OSCILLATION PERIOD IS 50 FS
Info:             DECAY TIME IS 25 FS
Info:     PISTON TEMPERATURE IS 300 K
Info:       PRESSURE CONTROL IS GROUP-BASED
Info:    INITIAL STRAIN RATE IS -0.000531577 -0.000531577 -0.000531577
Info:       CELL FLUCTUATION IS ISOTROPIC
Info: PARTICLE MESH EWALD (PME) ACTIVE
Info: PME TOLERANCE               1e-06
Info: PME EWALD COEFFICIENT       0.348832
Info: PME INTERPOLATION ORDER     4
Info: PME GRID DIMENSIONS         32 36 32
Info: PME MAXIMUM GRID SPACING    1
Info: PME CALCULATION WILL BE PERFORMED ON GPU
Info: FULL ELECTROSTATIC EVALUATION FREQUENCY      2
Info: USING VERLET I (r-RESPA) MTS SCHEME.
Info: C1 SPLITTING OF LONG RANGE ELECTROSTATICS
Info: PLACING ATOMS IN PATCHES BY HYDROGEN GROUPS
Info: RIGID BONDS TO HYDROGEN : ALL
Info:         ERROR TOLERANCE : 1e-08
Info:          MAX ITERATIONS : 100
Info: RIGID WATER USING SETTLE ALGORITHM
Info: RANDOM NUMBER SEED     1743976872
Info: USE HYDROGEN BONDS?    NO
Info: Using AMBER format force field!
Info: AMBER PARM FILE        mobley_3686115.prmtop
Info: COORDINATE PDB         mobley_3686115.pdb
Info: Exclusions will be read from PARM file!
Info: SCNB (VDW SCALING)     2
Info: USING ARITHMETIC MEAN TO COMBINE L-J SIGMA PARAMETERS
Info: BINARY COORDINATES     mobley_3686115_equil.coor
Info: SUMMARY OF PARAMETERS:
Info: 7 BONDS
Info: 10 ANGLES
Info:   10 HARMONIC
Info:   0 COSINE-BASED
Info: 9 DIHEDRAL
Info: 0 IMPROPER
Info: 0 CROSSTERM
Info: 0 VDW
Info: 28 VDW_PAIRS
Info: 0 NBTHOLE_PAIRS
Info: To read alchdata from file: mobley_3686115.pdb
Info: To read alchflag data from column: 5
Info: STRUCTURE SUMMARY:
Info: 2908 ATOMS
Info: 2907 BONDS
Info: 38 ANGLES
Info: 59 DIHEDRALS
Info: 0 IMPROPERS
Info: 0 CROSSTERMS
Info: 2984 EXCLUSIONS
Info: 2900 RIGID BONDS
Info: ALCH: 0 ATOMS TO DISAPPEAR IN FINAL STATE
Info: ALCH: 22 ATOMS TO APPEAR IN FINAL STATE
Info: 5824 DEGREES OF FREEDOM
Info: 970 HYDROGEN GROUPS
Info: 4 ATOMS IN LARGEST HYDROGEN GROUP
Info: 970 MIGRATION GROUPS
Info: 4 ATOMS IN LARGEST MIGRATION GROUP
Info: TOTAL MASS = 17449.6 amu
Info: TOTAL CHARGE = 0 e
Info: MASS DENSITY = 0.962192 g/cm^3
Info: ATOM DENSITY = 0.0965633 atoms/A^3
Info: ADDED 0 IMPLICIT EXCLUSIONS
Info: NONBONDED TABLE R-SQUARED SPACING: 0.0625
Info: NONBONDED TABLE SIZE: 705 POINTS
Info: REMOVING COM VELOCITY 0.00241775 0.0563923 -0.26986
Info: Use 3D box decompostion in PME FFT.
Info: Updated CUDA force table with 4096 elements.
Info: Updated CUDA LJ table with 7 x 7 elements.
Info: Found 25 unique exclusion lists needing 72 bytes
TCL: Running for 1500000 steps
ETITLE: TS BOND ANGLE DIHED IMPRP ELECT VDW BOUNDARY MISC KINETIC TOTAL TEMP POTENTIAL TOTALAVG TEMPAVG PRESSURE GPRESSURE VOLUME PRESSAVG GPRESSAVG
ENERGY: 0 2.7030 7.5083 9.9693 0.0000 -10549.3040 1428.8695 0.0000 0.0000 1758.9792 -7341.2746 303.9693 -9100.2539 -7341.2746 303.9693 130.5434 215.8957 30114.9595 130.5434 215.8957
ENERGY: 300000 1.7480 6.8618 10.3602 0.0000 -10458.4916 1396.8116 0.0000 0.0000 1658.7425 -7383.9676 286.6474 -9042.7101 -7370.0571 300.3010 -183.4723 -156.3587 30338.2855 -135.4474 -90.8846
ENERGY: 600000 3.2441 9.3195 11.1854 0.0000 -10516.4472 1392.0267 0.0000 0.0000 1778.7392 -7321.9323 307.3840 -9100.6715 -7346.0894 302.1140 -89.2851 -27.0098 29975.7582 -153.9841 -113.6024
ENERGY: 900000 1.4501 9.4228 11.6313 0.0000 -10548.2309 1369.0304 0.0000 0.0000 1759.1280 -7397.5683 303.9950 -9156.6963 -7348.4911 302.5037 -300.9053 -253.7006 29681.3765 -114.2660 -68.2132
ENERGY: 1200000 1.0799 9.3494 10.6388 0.0000 -10395.3413 1319.0028 0.0000 0.0000 1724.1084 -7331.1620 297.9433 -9055.2705 -7338.9391 302.4491 -690.4459 -599.8874 30196.9248 -80.4723 -27.5667
ENERGY: 1500000 2.7378 11.2680 10.4275 0.0000 -10428.3432 1383.7955 0.0000 0.0000 1751.4158 -7268.6986 302.6623 -9020.1144 -7345.2982 301.8917 -438.7337 -390.5905 30904.1554 -93.0013 -35.6559
TCL: Running FEP window   2: Lambda1 0.95   Lambda2 0.8999999999999999 [dLambda -0.050000000000000044]
TCL: Setting parameter firsttimestep to 0
TCL: Setting parameter alchLambda to 0.95
Info: NONBONDED TABLE R-SQUARED SPACING: 0.0625
Info: NONBONDED TABLE SIZE: 705 POINTS
TCL: Setting parameter alchLambda2 to 0.8999999999999999
Info: NONBONDED TABLE R-SQUARED SPACING: 0.0625
Info: NONBONDED TABLE SIZE: 705 POINTS
TCL: Running for 1500000 steps
ETITLE: TS BOND ANGLE DIHED IMPRP ELECT VDW BOUNDARY MISC KINETIC TOTAL TEMP POTENTIAL TOTALAVG TEMPAVG PRESSURE GPRESSURE VOLUME PRESSAVG GPRESSAVG
ENERGY: 0 2.7378 11.2680 10.4275 0.0000 -10427.6020 1383.4786 0.0000 0.0000 1750.5404 -7269.1497 302.5110 -9019.6901 -7269.1497 302.5110 -472.0157 -406.3616 30904.1554 -472.0157 -406.3616
ENERGY: 300000 4.5695 7.0139 9.8545 0.0000 -10521.7576 1423.8169 0.0000 0.0000 1737.4199 -7339.0829 300.2436 -9076.5028 -7355.8002 299.6639 203.6293 294.7868 29810.2518 -29.9969 34.3926
ENERGY: 600000 2.2954 6.6791 8.7245 0.0000 -10475.1139 1353.5020 0.0000 0.0000 1737.7890 -7366.1239 300.3074 -9103.9129 -7389.7676 298.0667 -622.1283 -523.6987 30416.7290 -154.8090 -86.4198
ENERGY: 900000 3.3803 8.1714 9.2937 0.0000 -10452.5385 1368.9137 0.0000 0.0000 1692.1288 -7370.6507 292.4169 -9062.7795 -7385.8741 298.1193 -494.8205 -455.8633 30295.8822 -233.3006 -162.2809
ENERGY: 1200000 0.6522 7.9782 9.2723 0.0000 -10556.7200 1443.2561 0.0000 0.0000 1707.3158 -7388.2453 295.0413 -9095.5611 -7387.5783 298.9206 261.1093 351.8364 29917.1624 -158.0796 -86.2070
ENERGY: 1500000 3.3373 11.6418 9.9295 0.0000 -10435.4623 1372.1657 0.0000 0.0000 1804.0830 -7234.3051 311.7637 -9038.3881 -7371.3319 301.2026 100.5939 137.6793 29955.5590 -131.1368 -66.6751
TCL: Running FEP window   3: Lambda1 0.8999999999999999 Lambda2 0.8499999999999999 [dLambda -0.050000000000000044]
TCL: Setting parameter firsttimestep to 0
TCL: Setting parameter alchLambda to 0.8999999999999999
Info: NONBONDED TABLE R-SQUARED SPACING: 0.0625
Info: NONBONDED TABLE SIZE: 705 POINTS
TCL: Setting parameter alchLambda2 to 0.8499999999999999
Info: NONBONDED TABLE R-SQUARED SPACING: 0.0625
Info: NONBONDED TABLE SIZE: 705 POINTS
TCL: Running for 1500000 steps
ETITLE: TS BOND ANGLE DIHED IMPRP ELECT VDW BOUNDARY MISC KINETIC TOTAL TEMP POTENTIAL TOTALAVG TEMPAVG PRESSURE GPRESSURE VOLUME PRESSAVG GPRESSAVG
ENERGY: 0 3.3373 11.6418 9.9295 0.0000 -10434.4683 1370.8769 0.0000 0.0000 1803.2356 -7235.4472 311.6172 -9038.6828 -7235.4472 311.6172 28.7930 107.9031 29955.5590 28.7930 107.9031
ENERGY: 300000 4.3460 8.8875 11.1330 0.0000 -10352.4521 1341.4460 0.0000 0.0000 1747.7521 -7238.8876 302.0291 -8986.6397 -7322.6311 301.4220 -328.0539 -223.1487 30032.5854 -77.6741 -7.5492
ENERGY: 600000 2.1562 9.1578 7.5694 0.0000 -10465.6740 1385.7192 0.0000 0.0000 1765.2389 -7295.8325 305.0510 -9061.0715 -7332.1558 301.0537 -325.2309 -179.5899 30289.1271 55.2439 125.1692
ENERGY: 900000 3.8448 12.6517 9.7679 0.0000 -10411.6182 1369.5807 0.0000 0.0000 1733.2674 -7282.5057 299.5260 -9015.7731 -7330.0974 300.8123 -97.2379 -78.3697 29885.0240 -100.9061 -35.8952
ENERGY: 1200000 1.7975 12.4393 7.6959 0.0000 -10497.1571 1389.9353 0.0000 0.0000 1740.5086 -7344.7806 300.7774 -9085.2892 -7338.8090 301.1516 -184.0159 -134.4815 30152.5619 -92.2165 -21.7848
ENERGY: 1500000 1.3265 10.5634 11.2179 0.0000 -10451.5654 1385.4580 0.0000 0.0000 1763.6999 -7279.2998 304.7851 -9042.9997 -7339.8315 300.7444 166.1484 240.2472 29919.9488 -70.8257 1.9437
TCL: Running FEP window   4: Lambda1 0.8499999999999999 Lambda2 0.7999999999999998 [dLambda -0.050000000000000044]
TCL: Setting parameter firsttimestep to 0
TCL: Setting parameter alchLambda to 0.8499999999999999
Info: NONBONDED TABLE R-SQUARED SPACING: 0.0625
Info: NONBONDED TABLE SIZE: 705 POINTS
TCL: Setting parameter alchLambda2 to 0.7999999999999998
Info: NONBONDED TABLE R-SQUARED SPACING: 0.0625
Info: NONBONDED TABLE SIZE: 705 POINTS
TCL: Running for 1500000 steps
ETITLE: TS BOND ANGLE DIHED IMPRP ELECT VDW BOUNDARY MISC KINETIC TOTAL TEMP POTENTIAL TOTALAVG TEMPAVG PRESSURE GPRESSURE VOLUME PRESSAVG GPRESSAVG
ENERGY: 0 1.3265 10.5633 11.2179 0.0000 -10450.5532 1384.6726 0.0000 0.0000 1762.8028 -7279.9700 304.6301 -9042.7728 -7279.9700 304.6301 133.3214 214.1391 29919.9488 133.3214 214.1391
ENERGY: 300000 4.3686 10.1210 11.3482 0.0000 -10389.1125 1369.4665 0.0000 0.0000 1724.2272 -7269.5810 297.9638 -8993.8082 -7322.1397 303.1490 -226.4340 -140.9382 30248.9458 -385.0821 -327.0752
ENERGY: 600000 1.9878 6.7512 9.4296 0.0000 -10551.0186 1440.9243 0.0000 0.0000 1669.7238 -7422.2020 288.5451 -9091.9258 -7349.4047 299.1632 369.4350 481.0521 29627.1770 -23.6212 42.4945
ENERGY: 900000 2.9296 7.9174 10.4703 0.0000 -10501.0057 1368.3293 0.0000 0.0000 1739.3697 -7371.9895 300.5806 -9111.3592 -7354.2239 299.1730 -309.0437 -255.5439 29653.2353 -55.1308 3.4686
ENERGY: 1200000 2.6196 8.9270 11.8825 0.0000 -10497.4235 1340.2421 0.0000 0.0000 1773.9053 -7359.8469 306.5487 -9133.7522 -7352.4549 299.8977 -642.3385 -635.3432 29953.2642 -36.0789 17.4961
ENERGY: 1500000 1.3983 13.4789 10.1921 0.0000 -10532.9722 1387.0647 0.0000 0.0000 1815.7175 -7305.1207 313.7742 -9120.8381 -7354.0454 300.9810 -188.0926 -107.5717 29762.5015 -111.8906 -58.7910
TCL: Running FEP window   5: Lambda1 0.7999999999999998 Lambda2 0.7499999999999998 [dLambda -0.050000000000000044]
TCL: Setting parameter firsttimestep to 0
TCL: Setting parameter alchLambda to 0.7999999999999998
Info: NONBONDED TABLE R-SQUARED SPACING: 0.0625
Info: NONBONDED TABLE SIZE: 705 POINTS
TCL: Setting parameter alchLambda2 to 0.7499999999999998
Info: NONBONDED TABLE R-SQUARED SPACING: 0.0625
Info: NONBONDED TABLE SIZE: 705 POINTS
TCL: Running for 1500000 steps
ETITLE: TS BOND ANGLE DIHED IMPRP ELECT VDW BOUNDARY MISC KINETIC TOTAL TEMP POTENTIAL TOTALAVG TEMPAVG PRESSURE GPRESSURE VOLUME PRESSAVG GPRESSAVG
ENERGY: 0 1.3983 13.4789 10.1921 0.0000 -10531.5792 1386.8197 0.0000 0.0000 1814.8598 -7304.8305 313.6260 -9119.6902 -7304.8305 313.6260 -196.9121 -118.7100 29762.5015 -196.9121 -118.7100
ENERGY: 300000 2.3803 10.8743 8.2403 0.0000 -10578.3282 1436.9857 0.0000 0.0000 1697.7552 -7422.0924 293.3892 -9119.8476 -7362.1874 301.5112 189.4453 259.1176 29581.8047 -12.9341 69.5754
ENERGY: 600000 1.4706 11.6823 11.2411 0.0000 -10538.6249 1414.8563 0.0000 0.0000 1727.4432 -7371.9313 298.5196 -9099.3745 -7350.8880 300.7531 -55.7610 -1.8555 29978.5937 -26.8654 44.0862
ENERGY: 900000 2.4679 11.5442 11.4845 0.0000 -10573.9521 1437.3345 0.0000 0.0000 1778.9044 -7332.2164 307.4126 -9111.1209 -7347.5315 300.8221 152.4446 223.2611 29739.9096 -9.0888 54.9794
ENERGY: 1200000 3.9715 9.7996 10.8806 0.0000 -10482.5392 1379.3254 0.0000 0.0000 1698.3119 -7380.2503 293.4854 -9078.5621 -7354.8880 299.8629 -256.8008 -187.6971 29665.7027 -32.0571 26.8868
ENERGY: 1500000 5.5123 10.7136 9.5403 0.0000 -10432.0688 1329.4304 0.0000 0.0000 1752.0702 -7324.8021 302.7754 -9076.8723 -7363.2090 299.4426 -655.3769 -589.5162 29949.9795 -32.5923 30.2473
TCL: Running FEP window   6: Lambda1 0.7499999999999998 Lambda2 0.6999999999999997 [dLambda -0.050000000000000044]
TCL: Setting parameter firsttimestep to 0
TCL: Setting parameter alchLambda to 0.7499999999999998
Info: NONBONDED TABLE R-SQUARED SPACING: 0.0625
Info: NONBONDED TABLE SIZE: 705 POINTS
TCL: Setting parameter alchLambda2 to 0.6999999999999997
Info: NONBONDED TABLE R-SQUARED SPACING: 0.0625
Info: NONBONDED TABLE SIZE: 705 POINTS
TCL: Running for 1500000 steps
ETITLE: TS BOND ANGLE DIHED IMPRP ELECT VDW BOUNDARY MISC KINETIC TOTAL TEMP POTENTIAL TOTALAVG TEMPAVG PRESSURE GPRESSURE VOLUME PRESSAVG GPRESSAVG
ENERGY: 0 5.5123 10.7136 9.5403 0.0000 -10431.0827 1329.7964 0.0000 0.0000 1751.2258 -7324.2945 302.6294 -9075.5202 -7324.2945 302.6294 -663.2763 -595.7602 29949.9795 -663.2763 -595.7602
ENERGY: 300000 3.9614 9.4010 7.7559 0.0000 -10421.5550 1325.4221 0.0000 0.0000 1721.9536 -7353.0609 297.5709 -9075.0145 -7367.8487 301.7484 -550.1106 -434.4091 29653.1533 -167.1405 -103.4203
ENERGY: 600000 1.4064 14.9427 8.5331 0.0000 -10459.5420 1392.4620 0.0000 0.0000 1745.1666 -7297.0312 301.5823 -9042.1978 -7338.5332 302.3831 -157.4597 -96.6395 30310.7429 -68.9060 -0.8594
ENERGY: 900000 1.8880 18.9587 10.0587 0.0000 -10511.7557 1400.0810 0.0000 0.0000 1747.8631 -7332.9063 302.0483 -9080.7695 -7349.3664 301.3293 -123.3133 -99.8917 30134.0955 -125.0121 -63.9791
ENERGY: 1200000 1.4531 6.7512 11.9569 0.0000 -10596.9813 1445.8108 0.0000 0.0000 1707.9455 -7423.0638 295.1502 -9131.0092 -7353.9706 301.9555 105.2215 107.9669 29859.2401 -115.1312 -56.0142
ENERGY: 1500000 3.3081 11.6698 7.9966 0.0000 -10669.8914 1521.4462 0.0000 0.0000 1803.9312 -7321.5397 311.7375 -9125.4709 -7351.2928 302.3477 666.1432 694.5581 30169.5208 -68.9172 -7.4981
TCL: Running FEP window   7: Lambda1 0.6999999999999997 Lambda2 0.6499999999999997 [dLambda -0.050000000000000044]
TCL: Setting parameter firsttimestep to 0
TCL: Setting parameter alchLambda to 0.6999999999999997
Info: NONBONDED TABLE R-SQUARED SPACING: 0.0625
Info: NONBONDED TABLE SIZE: 705 POINTS
TCL: Setting parameter alchLambda2 to 0.6499999999999997
Info: NONBONDED TABLE R-SQUARED SPACING: 0.0625
Info: NONBONDED TABLE SIZE: 705 POINTS
TCL: Running for 1500000 steps
ETITLE: TS BOND ANGLE DIHED IMPRP ELECT VDW BOUNDARY MISC KINETIC TOTAL TEMP POTENTIAL TOTALAVG TEMPAVG PRESSURE GPRESSURE VOLUME PRESSAVG GPRESSAVG
ENERGY: 0 3.3081 11.6698 7.9966 0.0000 -10669.0502 1521.6841 0.0000 0.0000 1803.0829 -7321.3088 311.5909 -9124.3917 -7321.3088 311.5909 603.5902 690.2818 30169.5208 603.5902 690.2818
ENERGY: 300000 1.6611 14.1883 7.2136 0.0000 -10450.9497 1366.8248 0.0000 0.0000 1780.9113 -7280.1506 307.7594 -9061.0619 -7333.0321 302.7626 -198.7999 -170.1411 29831.3833 -96.0786 -27.1410
ENERGY: 600000 3.8419 13.9287 10.1947 0.0000 -10486.6460 1410.5343 0.0000 0.0000 1723.7288 -7324.4176 297.8777 -9048.1465 -7323.7741 301.6459 484.0223 524.1390 29236.1101 -36.4791 32.2167
ENERGY: 900000 1.6256 14.5140 8.0648 0.0000 -10477.0508 1375.9378 0.0000 0.0000 1666.3383 -7410.5703 287.9600 -9076.9086 -7332.5228 300.2889 -246.2725 -195.7956 29981.6661 -82.3456 -15.3140
ENERGY: 1200000 3.2880 10.5025 7.6283 0.0000 -10631.2902 1430.2975 0.0000 0.0000 1745.0185 -7434.5554 301.5567 -9179.5739 -7344.6675 300.0587 -89.4036 -10.0316 29776.6474 -130.6183 -62.0187
ENERGY: 1500000 3.0108 14.5094 7.7274 0.0000 -10534.6033 1455.2613 0.0000 0.0000 1744.9137 -7309.1807 301.5386 -9054.0944 -7342.1167 300.0951 436.5186 424.2660 30048.1087 -87.2357 -24.2734
TCL: Running FEP window   8: Lambda1 0.6499999999999997 Lambda2 0.5999999999999996 [dLambda -0.050000000000000044]
TCL: Setting parameter firsttimestep to 0
TCL: Setting parameter alchLambda to 0.6499999999999997
Info: NONBONDED TABLE R-SQUARED SPACING: 0.0625
Info: NONBONDED TABLE SIZE: 705 POINTS
TCL: Setting parameter alchLambda2 to 0.5999999999999996
Info: NONBONDED TABLE R-SQUARED SPACING: 0.0625
Info: NONBONDED TABLE SIZE: 705 POINTS
TCL: Running for 1500000 steps
ETITLE: TS BOND ANGLE DIHED IMPRP ELECT VDW BOUNDARY MISC KINETIC TOTAL TEMP POTENTIAL TOTALAVG TEMPAVG PRESSURE GPRESSURE VOLUME PRESSAVG GPRESSAVG
ENERGY: 0 3.0108 14.5094 7.7274 0.0000 -10534.1791 1455.8203 0.0000 0.0000 1744.0543 -7309.0568 301.3901 -9053.1112 -7309.0568 301.3901 355.6479 421.3678 30048.1087 355.6479 421.3678
ENERGY: 300000 0.6154 9.7944 11.1781 0.0000 -10612.1078 1420.0329 0.0000 0.0000 1744.7107 -7425.7763 301.5036 -9170.4869 -7378.4611 300.6137 247.3324 301.7346 29255.5399 -13.9937 52.6599
ENERGY: 600000 2.8448 13.4103 9.4187 0.0000 -10548.3299 1453.5999 0.0000 0.0000 1696.5636 -7372.4926 293.1833 -9069.0562 -7374.4991 298.4973 268.5396 368.8592 30092.8500 60.7742 121.6303
ENERGY: 900000 2.1336 10.7952 8.3531 0.0000 -10493.2903 1321.5638 0.0000 0.0000 1696.6644 -7453.7803 293.2007 -9150.4447 -7380.1957 298.7678 -996.9162 -995.1392 30136.7656 -150.9788 -100.5109
ENERGY: 1200000 1.1513 13.7819 8.4811 0.0000 -10582.2390 1377.9494 0.0000 0.0000 1730.7586 -7450.1166 299.0925 -9180.8752 -7376.0457 299.0399 -332.3984 -310.8979 29584.2398 -179.6178 -129.5876
ENERGY: 1500000 3.6183 11.3719 9.6510 0.0000 -10486.4570 1308.1744 0.0000 0.0000 1797.1802 -7356.4612 310.5708 -9153.6414 -7366.5872 300.5706 -940.5259 -921.6940 29948.1243 -218.5893 -169.2572
TCL: Running FEP window   9: Lambda1 0.5999999999999996 Lambda2 0.5499999999999996 [dLambda -0.050000000000000044]
TCL: Setting parameter firsttimestep to 0
TCL: Setting parameter alchLambda to 0.5999999999999996
Info: NONBONDED TABLE R-SQUARED SPACING: 0.0625
Info: NONBONDED TABLE SIZE: 705 POINTS
TCL: Setting parameter alchLambda2 to 0.5499999999999996
Info: NONBONDED TABLE R-SQUARED SPACING: 0.0625
Info: NONBONDED TABLE SIZE: 705 POINTS
TCL: Running for 1500000 steps
ETITLE: TS BOND ANGLE DIHED IMPRP ELECT VDW BOUNDARY MISC KINETIC TOTAL TEMP POTENTIAL TOTALAVG TEMPAVG PRESSURE GPRESSURE VOLUME PRESSAVG GPRESSAVG
ENERGY: 0 3.6183 11.3719 9.6510 0.0000 -10486.4222 1308.0700 0.0000 0.0000 1796.3048 -7357.4063 310.4195 -9153.7111 -7357.4063 310.4195 -995.0989 -936.2422 29948.1243 -995.0989 -936.2422
ENERGY: 300000 2.5526 11.1890 8.5610 0.0000 -10514.2126 1389.4035 0.0000 0.0000 1688.5973 -7413.9092 291.8066 -9102.5065 -7376.5542 302.7495 -331.2930 -214.1682 29934.8422 213.2058 237.9144
ENERGY: 600000 2.6964 10.8140 10.9633 0.0000 -10479.1187 1341.6592 0.0000 0.0000 1706.0493 -7406.9366 294.8225 -9112.9859 -7376.6864 301.8045 -721.9778 -723.1448 30202.6419 -101.7970 -75.8067
ENERGY: 900000 1.7110 10.5853 10.9404 0.0000 -10477.2260 1375.7572 0.0000 0.0000 1712.4507 -7365.7814 295.9287 -9078.2321 -7376.8874 300.5681 -169.1991 -101.4735 29740.9433 -97.7092 -63.1586
ENERGY: 1200000 1.3052 13.3957 8.1721 0.0000 -10517.7316 1407.1586 0.0000 0.0000 1802.2391 -7285.4609 311.4450 -9087.7000 -7368.3933 300.7335 -119.5244 19.1778 29822.7317 -31.6943 15.9612
ENERGY: 1500000 2.5179 9.7959 8.6050 0.0000 -10478.7402 1398.6429 0.0000 0.0000 1743.9607 -7315.2179 301.3740 -9059.1786 -7369.5211 300.1585 188.1980 223.4975 29606.1425 -133.3393 -80.2787
TCL: Running FEP window  10: Lambda1 0.5499999999999996 Lambda2 0.4999999999999996 [dLambda -0.04999999999999999]
TCL: Setting parameter firsttimestep to 0
TCL: Setting parameter alchLambda to 0.5499999999999996
Info: NONBONDED TABLE R-SQUARED SPACING: 0.0625
Info: NONBONDED TABLE SIZE: 705 POINTS
TCL: Setting parameter alchLambda2 to 0.4999999999999996
Info: NONBONDED TABLE R-SQUARED SPACING: 0.0625
Info: NONBONDED TABLE SIZE: 705 POINTS
TCL: Running for 1500000 steps
ETITLE: TS BOND ANGLE DIHED IMPRP ELECT VDW BOUNDARY MISC KINETIC TOTAL TEMP POTENTIAL TOTALAVG TEMPAVG PRESSURE GPRESSURE VOLUME PRESSAVG GPRESSAVG
ENERGY: 0 2.5179 9.7959 8.6050 0.0000 -10478.4960 1399.2022 0.0000 0.0000 1743.1270 -7315.2481 301.2299 -9058.3751 -7315.2481 301.2299 135.8482 217.2366 29606.1425 135.8482 217.2366
ENERGY: 300000 4.0656 8.3330 10.1952 0.0000 -10606.6866 1422.9731 0.0000 0.0000 1723.0537 -7438.0659 297.7610 -9161.1196 -7384.1937 300.0907 -61.8643 -13.0930 29484.2746 -160.9474 -70.4106
ENERGY: 600000 1.5655 9.3142 8.5415 0.0000 -10611.1126 1455.6750 0.0000 0.0000 1740.0189 -7395.9974 300.6928 -9136.0163 -7367.3947 299.7210 465.9447 595.4245 29359.2467 -206.0349 -121.1234
ENERGY: 900000 3.1939 14.2195 10.1340 0.0000 -10587.3349 1423.0930 0.0000 0.0000 1737.6790 -7399.0155 300.2884 -9136.6945 -7370.8090 300.5777 -338.4155 -277.6120 30204.7170 -261.1358 -184.4082
ENERGY: 1200000 2.8364 9.6687 8.7286 0.0000 -10450.5936 1319.6083 0.0000 0.0000 1721.0728 -7388.6789 297.4187 -9109.7516 -7368.5526 300.3041 -898.0099 -767.5292 30136.3798 -351.1769 -270.9783
ENERGY: 1500000 2.4235 9.0484 9.0093 0.0000 -10536.9126 1400.4024 0.0000 0.0000 1737.6458 -7378.3831 300.2827 -9116.0289 -7372.5732 299.9519 -115.1151 -132.2656 29877.1128 -311.1826 -240.7962
TCL: Running FEP window  11: Lambda1 0.4999999999999996 Lambda2 0.4499999999999996 [dLambda -0.04999999999999999]
TCL: Setting parameter firsttimestep to 0
TCL: Setting parameter alchLambda to 0.4999999999999996
Info: NONBONDED TABLE R-SQUARED SPACING: 0.0625
Info: NONBONDED TABLE SIZE: 705 POINTS
TCL: Setting parameter alchLambda2 to 0.4499999999999996
Info: NONBONDED TABLE R-SQUARED SPACING: 0.0625
Info: NONBONDED TABLE SIZE: 705 POINTS
TCL: Running for 1500000 steps
ETITLE: TS BOND ANGLE DIHED IMPRP ELECT VDW BOUNDARY MISC KINETIC TOTAL TEMP POTENTIAL TOTALAVG TEMPAVG PRESSURE GPRESSURE VOLUME PRESSAVG GPRESSAVG
ENERGY: 0 2.4235 9.0484 9.0093 0.0000 -10536.3786 1400.4914 0.0000 0.0000 1736.7824 -7378.6236 300.1335 -9115.4060 -7378.6236 300.1335 -230.6176 -139.9097 29877.1128 -230.6176 -139.9097
ENERGY: 300000 1.4658 11.6190 8.5469 0.0000 -10586.8766 1426.9795 0.0000 0.0000 1749.9887 -7388.2768 302.4156 -9138.2654 -7393.4428 302.5810 396.0449 429.2770 29530.1821 235.9220 280.1660
ENERGY: 600000 0.6579 10.5759 9.2980 0.0000 -10687.0857 1478.9261 0.0000 0.0000 1737.4163 -7450.2115 300.2430 -9187.6278 -7406.7950 301.4647 254.7219 283.5363 29667.8604 123.3143 166.9912
ENERGY: 900000 2.9910 17.1492 9.5149 0.0000 -10421.5990 1341.1189 0.0000 0.0000 1830.5352 -7220.2898 316.3349 -9050.8250 -7376.1868 302.2891 -698.3283 -623.5320 30280.4736 7.6096 53.7979
ENERGY: 1200000 0.7921 9.8339 7.9920 0.0000 -10639.9888 1442.8541 0.0000 0.0000 1739.1419 -7439.3748 300.5412 -9178.5167 -7377.2239 302.6260 -194.9743 -127.8033 30140.4400 20.5981 71.3954
ENERGY: 1500000 3.6566 7.8785 8.2612 0.0000 -10481.6092 1339.8907 0.0000 0.0000 1765.3519 -7356.5703 305.0706 -9121.9222 -7375.6357 302.5472 -677.6189 -586.8105 30123.4928 -36.7064 19.5353
TCL: Running FEP window  12: Lambda1 0.4499999999999996 Lambda2 0.39999999999999963 [dLambda -0.04999999999999999]
TCL: Setting parameter firsttimestep to 0
TCL: Setting parameter alchLambda to 0.4499999999999996
Info: NONBONDED TABLE R-SQUARED SPACING: 0.0625
Info: NONBONDED TABLE SIZE: 705 POINTS
TCL: Setting parameter alchLambda2 to 0.39999999999999963
Info: NONBONDED TABLE R-SQUARED SPACING: 0.0625
Info: NONBONDED TABLE SIZE: 705 POINTS
TCL: Running for 1500000 steps
ETITLE: TS BOND ANGLE DIHED IMPRP ELECT VDW BOUNDARY MISC KINETIC TOTAL TEMP POTENTIAL TOTALAVG TEMPAVG PRESSURE GPRESSURE VOLUME PRESSAVG GPRESSAVG
ENERGY: 0 3.6566 7.8785 8.2612 0.0000 -10481.6081 1340.1552 0.0000 0.0000 1764.4668 -7357.1897 304.9176 -9121.6566 -7357.1897 304.9176 -690.5047 -591.7723 30123.4928 -690.5047 -591.7723
ENERGY: 300000 1.9838 15.8851 9.1133 0.0000 -10700.1442 1500.6672 0.0000 0.0000 1768.0263 -7404.4687 305.5327 -9172.4949 -7374.8799 300.2200 653.4845 662.9113 29464.2953 52.4948 101.8057
ENERGY: 600000 2.7203 10.5062 8.8468 0.0000 -10522.7681 1452.4035 0.0000 0.0000 1718.3792 -7329.9120 296.9532 -9048.2912 -7367.6598 298.3407 496.4577 546.4803 29837.9393 9.1884 68.9256
ENERGY: 900000 3.8147 15.8601 10.0320 0.0000 -10455.6733 1319.6332 0.0000 0.0000 1670.2698 -7436.0635 288.6394 -9106.3333 -7384.4679 297.3443 -565.7619 -497.1587 29486.9825 -59.1983 -12.6253
ENERGY: 1200000 2.3034 8.0369 10.3290 0.0000 -10602.1761 1422.7365 0.0000 0.0000 1760.3024 -7398.4679 304.1980 -9158.7703 -7381.0256 298.7321 33.8150 167.3107 29531.1598 -20.1304 31.1402
ENERGY: 1500000 2.0894 17.5012 8.5811 0.0000 -10490.1818 1400.3791 0.0000 0.0000 1710.0225 -7351.6086 295.5091 -9061.6311 -7384.1973 298.5842 20.3488 91.9732 29694.7125 -55.0825 -3.9731
TCL: Running FEP window  13: Lambda1 0.39999999999999963 Lambda2 0.34999999999999964 [dLambda -0.04999999999999999]
TCL: Setting parameter firsttimestep to 0
TCL: Setting parameter alchLambda to 0.39999999999999963
Info: NONBONDED TABLE R-SQUARED SPACING: 0.0625
Info: NONBONDED TABLE SIZE: 705 POINTS
TCL: Setting parameter alchLambda2 to 0.34999999999999964
Info: NONBONDED TABLE R-SQUARED SPACING: 0.0625
Info: NONBONDED TABLE SIZE: 705 POINTS
TCL: Running for 1500000 steps
ETITLE: TS BOND ANGLE DIHED IMPRP ELECT VDW BOUNDARY MISC KINETIC TOTAL TEMP POTENTIAL TOTALAVG TEMPAVG PRESSURE GPRESSURE VOLUME PRESSAVG GPRESSAVG
ENERGY: 0 2.0894 17.5012 8.5811 0.0000 -10490.1829 1400.4963 0.0000 0.0000 1709.1772 -7352.3378 295.3630 -9061.5150 -7352.3378 295.3630 -10.6375 82.6211 29694.7125 -10.6375 82.6211
ENERGY: 300000 1.5915 14.8982 10.3010 0.0000 -10620.7962 1487.5126 0.0000 0.0000 1768.8077 -7337.6851 305.6678 -9106.4928 -7363.8188 296.5768 473.5287 558.6910 29670.3031 345.5051 390.2896
ENERGY: 600000 1.5754 9.9439 8.5794 0.0000 -10637.4999 1447.7714 0.0000 0.0000 1704.3000 -7465.3297 294.5202 -9169.6297 -7373.6520 298.2708 63.1618 144.2958 29500.7843 267.4504 324.5887
ENERGY: 900000 3.3215 7.5842 12.2418 0.0000 -10469.5414 1358.7169 0.0000 0.0000 1722.0748 -7365.6023 297.5918 -9087.6771 -7360.2554 299.5652 -391.4165 -358.6009 29709.8516 150.4225 200.1244
ENERGY: 1200000 3.9331 12.4251 9.3333 0.0000 -10553.3055 1418.5218 0.0000 0.0000 1736.2306 -7372.8616 300.0381 -9109.0922 -7356.7203 300.1171 235.0504 297.2387 29733.6762 120.3586 170.7597
ENERGY: 1500000 0.8601 11.2799 8.2771 0.0000 -10683.8003 1455.8106 0.0000 0.0000 1710.4813 -7497.0913 295.5884 -9207.5726 -7362.8336 299.1385 -155.4009 -119.9328 29875.2501 150.4180 198.7321
TCL: Running FEP window  14: Lambda1 0.34999999999999964 Lambda2 0.29999999999999966 [dLambda -0.04999999999999999]
TCL: Setting parameter firsttimestep to 0
TCL: Setting parameter alchLambda to 0.34999999999999964
Info: NONBONDED TABLE R-SQUARED SPACING: 0.0625
Info: NONBONDED TABLE SIZE: 705 POINTS
TCL: Setting parameter alchLambda2 to 0.29999999999999966
Info: NONBONDED TABLE R-SQUARED SPACING: 0.0625
Info: NONBONDED TABLE SIZE: 705 POINTS
TCL: Running for 1500000 steps
ETITLE: TS BOND ANGLE DIHED IMPRP ELECT VDW BOUNDARY MISC KINETIC TOTAL TEMP POTENTIAL TOTALAVG TEMPAVG PRESSURE GPRESSURE VOLUME PRESSAVG GPRESSAVG
ENERGY: 0 0.8601 11.2798 8.2771 0.0000 -10683.7987 1455.8487 0.0000 0.0000 1709.5732 -7497.9598 295.4314 -9207.5330 -7497.9598 295.4314 -221.1621 -127.3976 29875.2501 -221.1621 -127.3976
ENERGY: 300000 1.5926 9.4936 13.4120 0.0000 -10527.1679 1413.0236 0.0000 0.0000 1762.5607 -7327.0854 304.5882 -9089.6461 -7404.1759 299.0410 87.2214 94.3240 29821.4525 -80.7313 -45.6679
ENERGY: 600000 0.9919 9.7437 8.7317 0.0000 -10562.3148 1362.3753 0.0000 0.0000 1657.5191 -7522.9531 286.4360 -9180.4722 -7419.1350 297.3680 -581.9831 -534.2410 29559.8487 -72.2307 -34.9970
ENERGY: 900000 0.6453 11.4883 9.6332 0.0000 -10463.4551 1358.6104 0.0000 0.0000 1712.5767 -7370.5012 295.9505 -9083.0779 -7402.3829 297.9365 -490.1356 -407.4762 30068.9142 -82.1462 -43.7639
ENERGY: 1200000 2.8381 10.5567 8.5859 0.0000 -10374.9767 1319.8670 0.0000 0.0000 1746.4832 -7286.6457 301.8099 -9033.1289 -7390.1799 297.9617 -711.9305 -720.9317 30293.3720 -170.0427 -126.0781
ENERGY: 1500000 2.8677 6.3029 10.1059 0.0000 -10564.3896 1450.3938 0.0000 0.0000 1723.9741 -7370.7454 297.9201 -9094.7194 -7383.2411 299.3769 214.5335 330.9236 29668.5444 -128.1063 -74.6480
TCL: Running FEP window  15: Lambda1 0.29999999999999966 Lambda2 0.24999999999999967 [dLambda -0.04999999999999999]
TCL: Setting parameter firsttimestep to 0
TCL: Setting parameter alchLambda to 0.29999999999999966
Info: NONBONDED TABLE R-SQUARED SPACING: 0.0625
Info: NONBONDED TABLE SIZE: 705 POINTS
TCL: Setting parameter alchLambda2 to 0.24999999999999967
Info: NONBONDED TABLE R-SQUARED SPACING: 0.0625
Info: NONBONDED TABLE SIZE: 705 POINTS
TCL: Running for 1500000 steps
ETITLE: TS BOND ANGLE DIHED IMPRP ELECT VDW BOUNDARY MISC KINETIC TOTAL TEMP POTENTIAL TOTALAVG TEMPAVG PRESSURE GPRESSURE VOLUME PRESSAVG GPRESSAVG
ENERGY: 0 2.8677 6.3029 10.1059 0.0000 -10564.3892 1450.6507 0.0000 0.0000 1723.0929 -7371.3691 297.7678 -9094.4620 -7371.3691 297.7678 246.1419 325.7618 29668.5444 246.1419 325.7618
ENERGY: 300000 2.5351 9.5470 8.2197 0.0000 -10509.0481 1423.5664 0.0000 0.0000 1749.4370 -7315.7429 302.3203 -9065.1799 -7363.6155 297.3895 28.9940 74.8870 29836.1408 -13.6379 43.4663
ENERGY: 600000 2.3714 8.4906 9.9421 0.0000 -10496.1524 1409.5736 0.0000 0.0000 1738.5169 -7327.2578 300.4332 -9065.7747 -7356.3950 299.3355 -204.7965 -119.8874 30611.4630 -70.1236 -13.3615
ENERGY: 900000 1.6031 10.7006 9.3762 0.0000 -10454.6938 1361.8767 0.0000 0.0000 1732.3081 -7338.8290 299.3603 -9071.1371 -7367.9099 299.0888 -532.6668 -399.2023 30225.6973 40.5487 96.5530
ENERGY: 1200000 1.9215 8.7569 9.8873 0.0000 -10492.3912 1379.3782 0.0000 0.0000 1690.1595 -7402.2878 292.0766 -9092.4473 -7357.0503 299.2178 -381.9196 -371.8180 29923.2531 -1.2217 52.8612
ENERGY: 1500000 2.9311 13.1801 8.0169 0.0000 -10566.2133 1365.9775 0.0000 0.0000 1760.5376 -7415.5701 304.2386 -9176.1077 -7349.5013 300.5652 -604.5492 -525.5337 29665.4939 -28.9814 25.6516
TCL: Running FEP window  16: Lambda1 0.24999999999999967 Lambda2 0.19999999999999968 [dLambda -0.04999999999999999]
TCL: Setting parameter firsttimestep to 0
TCL: Setting parameter alchLambda to 0.24999999999999967
Info: NONBONDED TABLE R-SQUARED SPACING: 0.0625
Info: NONBONDED TABLE SIZE: 705 POINTS
TCL: Setting parameter alchLambda2 to 0.19999999999999968
Info: NONBONDED TABLE R-SQUARED SPACING: 0.0625
Info: NONBONDED TABLE SIZE: 705 POINTS
TCL: Running for 1500000 steps
ETITLE: TS BOND ANGLE DIHED IMPRP ELECT VDW BOUNDARY MISC KINETIC TOTAL TEMP POTENTIAL TOTALAVG TEMPAVG PRESSURE GPRESSURE VOLUME PRESSAVG GPRESSAVG
ENERGY: 0 2.9311 13.1801 8.0169 0.0000 -10566.2120 1366.4039 0.0000 0.0000 1759.6798 -7416.0001 304.0904 -9175.6799 -7416.0001 304.0904 -614.3800 -526.4053 29665.4939 -614.3800 -526.4053
ENERGY: 300000 0.3790 6.6550 8.1088 0.0000 -10504.3113 1384.0373 0.0000 0.0000 1750.8899 -7354.2413 302.5714 -9105.1312 -7339.5168 303.0900 -346.2670 -319.2585 30105.3822 -170.6911 -122.5614
ENERGY: 600000 2.3788 12.7746 8.3772 0.0000 -10410.7056 1360.3021 0.0000 0.0000 1724.8634 -7302.0095 298.0738 -9026.8730 -7334.8652 301.0814 -306.8833 -251.8987 29977.3872 -81.3079 -27.6086
ENERGY: 900000 3.4486 6.5663 9.8619 0.0000 -10514.8211 1418.1786 0.0000 0.0000 1706.2573 -7370.5084 294.8584 -9076.7657 -7350.8728 300.3429 36.3802 113.8629 29917.8721 -5.7218 51.0083
ENERGY: 1200000 2.1978 9.8406 13.5165 0.0000 -10455.2387 1435.5347 0.0000 0.0000 1711.2578 -7282.8913 295.7226 -8994.1491 -7355.1202 300.6090 518.0937 609.9730 29612.7614 19.8479 82.3710
ENERGY: 1500000 2.2661 7.2618 8.0112 0.0000 -10472.9683 1372.7875 0.0000 0.0000 1740.8525 -7341.7892 300.8368 -9082.6417 -7360.8004 299.9346 -395.7648 -324.3409 30108.9495 -87.3202 -19.1953
TCL: Running FEP window  17: Lambda1 0.19999999999999968 Lambda2 0.1499999999999997 [dLambda -0.04999999999999999]
TCL: Setting parameter firsttimestep to 0
TCL: Setting parameter alchLambda to 0.19999999999999968
Info: NONBONDED TABLE R-SQUARED SPACING: 0.0625
Info: NONBONDED TABLE SIZE: 705 POINTS
TCL: Setting parameter alchLambda2 to 0.1499999999999997
Info: NONBONDED TABLE R-SQUARED SPACING: 0.0625
Info: NONBONDED TABLE SIZE: 705 POINTS
TCL: Running for 1500000 steps
ETITLE: TS BOND ANGLE DIHED IMPRP ELECT VDW BOUNDARY MISC KINETIC TOTAL TEMP POTENTIAL TOTALAVG TEMPAVG PRESSURE GPRESSURE VOLUME PRESSAVG GPRESSAVG
ENERGY: 0 2.2661 7.2618 8.0112 0.0000 -10472.9692 1372.9358 0.0000 0.0000 1740.0054 -7342.4889 300.6904 -9082.4942 -7342.4889 300.6904 -428.3974 -325.2928 30108.9495 -428.3974 -325.2928
ENERGY: 300000 2.6681 16.7669 7.8437 0.0000 -10505.0209 1387.0951 0.0000 0.0000 1739.0087 -7351.6384 300.5182 -9090.6471 -7345.1599 300.2071 -162.2679 -192.0964 30007.3750 -315.6063 -265.1806
ENERGY: 600000 3.3492 7.4460 10.7916 0.0000 -10551.1574 1462.7720 0.0000 0.0000 1791.3923 -7275.4064 309.5706 -9066.7987 -7348.9151 299.9266 124.3397 267.2950 30081.1422 -369.9415 -304.4470
ENERGY: 900000 0.7313 10.5597 9.7233 0.0000 -10565.6548 1395.5988 0.0000 0.0000 1775.6787 -7373.3629 306.8551 -9149.0416 -7346.1454 301.6645 -275.3058 -201.0152 29376.6792 -239.1126 -172.8707
ENERGY: 1200000 2.4131 9.9674 8.2183 0.0000 -10592.7896 1478.7765 0.0000 0.0000 1690.1663 -7403.2481 292.0777 -9093.4144 -7359.3953 301.6042 443.5454 482.1679 29810.4719 -65.6623 0.5815
ENERGY: 1500000 1.2960 13.1011 8.9722 0.0000 -10497.5210 1381.9717 0.0000 0.0000 1755.6664 -7336.5137 303.3968 -9092.1801 -7359.4369 301.0958 -204.6563 -204.0697 29792.6288 -60.8268 -1.4179
TCL: Running FEP window  18: Lambda1 0.1499999999999997 Lambda2 0.09999999999999969 [dLambda -0.05 ]
TCL: Setting parameter firsttimestep to 0
TCL: Setting parameter alchLambda to 0.1499999999999997
Info: NONBONDED TABLE R-SQUARED SPACING: 0.0625
Info: NONBONDED TABLE SIZE: 705 POINTS
TCL: Setting parameter alchLambda2 to 0.09999999999999969
Info: NONBONDED TABLE R-SQUARED SPACING: 0.0625
Info: NONBONDED TABLE SIZE: 705 POINTS
TCL: Running for 1500000 steps
ETITLE: TS BOND ANGLE DIHED IMPRP ELECT VDW BOUNDARY MISC KINETIC TOTAL TEMP POTENTIAL TOTALAVG TEMPAVG PRESSURE GPRESSURE VOLUME PRESSAVG GPRESSAVG
ENERGY: 0 1.2960 13.1011 8.9722 0.0000 -10497.5213 1382.4395 0.0000 0.0000 1754.7483 -7336.9641 303.2382 -9091.7125 -7336.9641 303.2382 -260.8697 -203.8202 29792.6288 -260.8697 -203.8202
ENERGY: 300000 1.0968 12.7816 9.9484 0.0000 -10582.4830 1477.9068 0.0000 0.0000 1764.6358 -7316.1136 304.9468 -9080.7494 -7348.8462 302.6024 350.1028 427.2311 30054.1755 125.3689 209.3760
ENERGY: 600000 1.4752 8.9689 9.9305 0.0000 -10653.0921 1499.7561 0.0000 0.0000 1758.9718 -7373.9895 303.9680 -9132.9613 -7364.0245 301.1501 775.4377 764.3915 29482.1263 159.6006 231.4698
ENERGY: 900000 5.5107 14.7240 7.1250 0.0000 -10443.4520 1342.3482 0.0000 0.0000 1691.6171 -7382.1270 292.3284 -9073.7441 -7370.1026 299.2168 -279.7293 -253.4820 29707.9970 236.3723 293.4588
ENERGY: 1200000 1.7296 12.4830 9.8484 0.0000 -10541.0853 1379.9842 0.0000 0.0000 1704.7592 -7432.2809 294.5995 -9137.0401 -7378.3790 298.5321 -418.5682 -374.3301 29841.0270 122.6744 172.5664
ENERGY: 1500000 0.9730 5.2547 9.5014 0.0000 -10401.1009 1329.4786 0.0000 0.0000 1755.9926 -7299.9006 303.4532 -9055.8932 -7367.8272 299.6487 -545.8091 -507.8023 30018.8579 82.7901 131.6652
TCL: Running FEP window  19: Lambda1 0.09999999999999969 Lambda2 0.049999999999999684 [dLambda -0.05 ]
TCL: Setting parameter firsttimestep to 0
TCL: Setting parameter alchLambda to 0.09999999999999969
Info: NONBONDED TABLE R-SQUARED SPACING: 0.0625
Info: NONBONDED TABLE SIZE: 705 POINTS
TCL: Setting parameter alchLambda2 to 0.049999999999999684
Info: NONBONDED TABLE R-SQUARED SPACING: 0.0625
Info: NONBONDED TABLE SIZE: 705 POINTS
TCL: Running for 1500000 steps
ETITLE: TS BOND ANGLE DIHED IMPRP ELECT VDW BOUNDARY MISC KINETIC TOTAL TEMP POTENTIAL TOTALAVG TEMPAVG PRESSURE GPRESSURE VOLUME PRESSAVG GPRESSAVG
ENERGY: 0 0.9730 5.2547 9.5014 0.0000 -10401.1010 1329.8689 0.0000 0.0000 1755.0912 -7300.4118 303.2974 -9055.5030 -7300.4118 303.2974 -593.0076 -508.9203 30018.8579 -593.0076 -508.9203
ENERGY: 300000 1.3659 14.7385 9.5111 0.0000 -10408.8829 1380.4828 0.0000 0.0000 1778.2043 -7224.5803 307.2916 -9002.7846 -7290.2657 302.5791 48.4055 154.4310 29700.7675 -289.0769 -211.7608
ENERGY: 600000 0.6179 20.1229 7.4830 0.0000 -10525.0287 1419.1942 0.0000 0.0000 1738.3284 -7339.2824 300.4006 -9077.6107 -7309.2006 301.1822 207.0231 276.8650 29735.4937 -272.2842 -192.2738
ENERGY: 900000 1.1656 10.4788 8.4585 0.0000 -10604.3881 1469.3398 0.0000 0.0000 1739.1605 -7375.7849 300.5444 -9114.9454 -7325.8075 300.8417 599.5249 717.7727 29211.1819 -113.7349 -38.6804
ENERGY: 1200000 2.4406 11.4177 9.1031 0.0000 -10445.4957 1261.1071 0.0000 0.0000 1744.9143 -7416.5128 301.5387 -9161.4272 -7336.5750 300.2717 -1291.3255 -1312.2827 29647.5270 -229.2036 -163.3318
ENERGY: 1500000 2.4898 9.7452 11.3151 0.0000 -10536.1151 1442.0225 0.0000 0.0000 1795.4435 -7275.0990 310.2707 -9070.5425 -7327.7887 301.5666 455.0296 506.4473 29631.0487 -150.3418 -81.6041
TCL: Running FEP window  20: Lambda1 0.049999999999999684 Lambda2 0.0    [dLambda -0.049999999999999684]
TCL: Setting parameter firsttimestep to 0
TCL: Setting parameter alchLambda to 0.049999999999999684
Info: NONBONDED TABLE R-SQUARED SPACING: 0.0625
Info: NONBONDED TABLE SIZE: 705 POINTS
TCL: Setting parameter alchLambda2 to 0.0
Info: NONBONDED TABLE R-SQUARED SPACING: 0.0625
Info: NONBONDED TABLE SIZE: 705 POINTS
TCL: Running for 1500000 steps
ETITLE: TS BOND ANGLE DIHED IMPRP ELECT VDW BOUNDARY MISC KINETIC TOTAL TEMP POTENTIAL TOTALAVG TEMPAVG PRESSURE GPRESSURE VOLUME PRESSAVG GPRESSAVG
ENERGY: 0 2.4898 9.7452 11.3151 0.0000 -10536.1157 1441.8672 0.0000 0.0000 1794.5358 -7276.1626 310.1138 -9070.6983 -7276.1626 310.1138 409.9835 501.9026 29631.0487 409.9835 501.9026
ENERGY: 300000 8.0221 8.5009 8.2076 0.0000 -10637.0551 1436.7614 0.0000 0.0000 1702.9734 -7472.5898 294.2909 -9175.5631 -7360.8827 299.2339 -408.4157 -387.0263 29698.1029 -115.5008 -54.8587
ENERGY: 600000 1.1358 11.0734 8.5696 0.0000 -10458.5093 1377.6894 0.0000 0.0000 1714.5671 -7345.4741 296.2944 -9060.0411 -7349.4341 299.0799 -444.1616 -398.9929 30259.7990 -136.4448 -68.4019
ENERGY: 900000 1.6073 13.7205 7.7351 0.0000 -10491.7813 1439.9671 0.0000 0.0000 1782.3366 -7246.4147 308.0057 -9028.7513 -7360.9968 299.1885 256.4049 303.5065 30096.4653 -123.1310 -54.3411
ENERGY: 1200000 2.1883 9.9970 8.9356 0.0000 -10627.2867 1397.3441 0.0000 0.0000 1723.7770 -7485.0447 297.8860 -9208.8217 -7363.1277 299.9339 -530.5308 -432.1526 29729.3555 -125.7081 -57.2983
ENERGY: 1500000 1.1112 12.4522 10.1239 0.0000 -10632.1461 1501.2664 0.0000 0.0000 1798.0929 -7309.0994 310.7285 -9107.1923 -7362.1628 299.9419 700.1012 792.7665 29518.1560 -47.6774 19.8746
TCL: Exiting due to exit command.
