Info: SIMULATION PARAMETERS:
Info: TIMESTEP               2
Info: NUMBER OF STEPS        0
Info: STEPS PER CYCLE        10
Info: PERIODIC CELL BASIS 1  34.8083 0 0
Info: PERIODIC CELL BASIS 2  0 30.0147 0
Info: PERIODIC CELL BASIS 3  0 0 29.2842
Info: PERIODIC CELL CENTER   0 0 0
Info: WRAPPING WATERS AROUND PERIODIC BOUNDARIES ON OUTPUT.
Info: WRAPPING ALL CLUSTERS AROUND PERIODIC BOUNDARIES ON OUTPUT.
Info: FIRST LDB TIMESTEP     50
Info: LAST LDB TIMESTEP     -1
Info: HOM BACKGROUND SCALING 1
Info: PME BACKGROUND SCALING 1
Info: MIN ATOMS PER PATCH    40
Info: EMPTY PATCH LOAD       40 ATOMS
Info: VELOCITY FILE          mobley_9015240_equil.vel
Info: CENTER OF MASS MOVING INITIALLY? NO
Info: DIELECTRIC             1
Info: EXCLUDE                SCALED ONE-FOUR
Info: 1-4 ELECTROSTATICS SCALED BY 0.833333
Info: MODIFIED 1-4 VDW PARAMETERS WILL BE USED
Info: DCD FILENAME           mobley_9015240_prod.dcd
Info: DCD FREQUENCY          100000
Info: DCD FIRST STEP         100000
Info: DCD FILE WILL CONTAIN UNIT CELL DATA
Info: XST FILENAME           mobley_9015240_prod.xst
Info: XST FREQUENCY          100000
Info: NO VELOCITY DCD OUTPUT
Info: NO FORCE DCD OUTPUT
Info: OUTPUT FILENAME        mobley_9015240_prod
Info: BINARY OUTPUT FILES WILL BE USED
Info: RESTART FILENAME       mobley_9015240_prod.restart
Info: RESTART FREQUENCY      100000
Info: BINARY RESTART FILES WILL BE USED
Info: CUTOFF                 9
Info: PAIRLIST DISTANCE      11
Info: PAIRLIST SHRINK RATE   0.01
Info: PAIRLIST GROW RATE     0.01
Info: PAIRLIST TRIGGER       0.3
Info: PAIRLISTS PER CYCLE    2
Info: PAIRLISTS ENABLED
Info: MARGIN                 2
Info: HYDROGEN GROUP CUTOFF  2.5
Info: PATCH DIMENSION        15.5
Info: ENERGY OUTPUT STEPS    100000
Info: ENERGY EVALUATION STEPS    100000
Info: OUTPUT ENERGY PRECISION 4
Info: CROSSTERM ENERGY INCLUDED IN DIHEDRAL
Info: TIMING OUTPUT STEPS    1000000
Info: PRESSURE OUTPUT STEPS  100000
Info: ALCHEMICAL FEP ON
Info: FEP CURRENT LAMBDA VALUE     0
Info: FEP COMPARISON LAMBDA VALUE  0.05
Info: FEP INTRA-ALCHEMICAL NON-BONDED INTERACTIONS WILL BE RETAINED
Info: FEP INTRA-ALCHEMICAL BONDED INTERACTIONS WILL BE RETAINED
Info: FEP VDW SHIFTING COEFFICIENT 5
Info: FEP ELEC. ACTIVE FOR ANNIHILATED PARTICLES BETWEEN LAMBDA = 0 AND LAMBDA = 0.5
Info: FEP ELEC. ACTIVE FOR EXNIHILATED PARTICLES BETWEEN LAMBDA = 0.5 AND LAMBDA = 1
Info: FEP VDW ACTIVE FOR ANNIHILATED PARTICLES BETWEEN LAMBDA = 0 AND LAMBDA = 1
Info: FEP VDW ACTIVE FOR EXNIHILATED PARTICLES BETWEEN LAMBDA = 0 AND LAMBDA = 1
Info: FEP BOND ACTIVE FOR ANNIHILATED PARTICLES BETWEEN LAMBDA = 1 AND LAMBDA = 1
Info: FEP BOND ACTIVE FOR EXNIHILATED PARTICLES BETWEEN LAMBDA = 0 AND LAMBDA = 0
Info: LANGEVIN DYNAMICS ACTIVE
Info: LANGEVIN TEMPERATURE   300
Info: LANGEVIN USING BBK INTEGRATOR
Info: LANGEVIN DAMPING COEFFICIENT IS 1 INVERSE PS
Info: LANGEVIN DYNAMICS APPLIED TO HYDROGENS
Info: LANGEVIN PISTON PRESSURE CONTROL ACTIVE
Info:        TARGET PRESSURE IS 1.01325 BAR
Info:     OSCILLATION PERIOD IS 50 FS
Info:             DECAY TIME IS 25 FS
Info:     PISTON TEMPERATURE IS 300 K
Info:       PRESSURE CONTROL IS GROUP-BASED
Info:    INITIAL STRAIN RATE IS 0.000595669 0.000595669 0.000595669
Info:       CELL FLUCTUATION IS ISOTROPIC
Info: PARTICLE MESH EWALD (PME) ACTIVE
Info: PME TOLERANCE               1e-06
Info: PME EWALD COEFFICIENT       0.348832
Info: PME INTERPOLATION ORDER     4
Info: PME GRID DIMENSIONS         36 32 32
Info: PME MAXIMUM GRID SPACING    1
Info: PME CALCULATION WILL BE PERFORMED ON GPU
Info: FULL ELECTROSTATIC EVALUATION FREQUENCY      2
Info: USING VERLET I (r-RESPA) MTS SCHEME.
Info: C1 SPLITTING OF LONG RANGE ELECTROSTATICS
Info: PLACING ATOMS IN PATCHES BY HYDROGEN GROUPS
Info: RIGID BONDS TO HYDROGEN : ALL
Info:         ERROR TOLERANCE : 1e-08
Info:          MAX ITERATIONS : 100
Info: RIGID WATER USING SETTLE ALGORITHM
Info: RANDOM NUMBER SEED     1744061011
Info: USE HYDROGEN BONDS?    NO
Info: Using AMBER format force field!
Info: AMBER PARM FILE        mobley_9015240.prmtop
Info: COORDINATE PDB         mobley_9015240.pdb
Info: Exclusions will be read from PARM file!
Info: SCNB (VDW SCALING)     2
Info: USING ARITHMETIC MEAN TO COMBINE L-J SIGMA PARAMETERS
Info: BINARY COORDINATES     mobley_9015240_equil.coor
Info: SUMMARY OF PARAMETERS:
Info: 6 BONDS
Info: 7 ANGLES
Info:   7 HARMONIC
Info:   0 COSINE-BASED
Info: 8 DIHEDRAL
Info: 0 IMPROPER
Info: 0 CROSSTERM
Info: 0 VDW
Info: 21 VDW_PAIRS
Info: 0 NBTHOLE_PAIRS
Info: To read alchdata from file: mobley_9015240.pdb
Info: To read alchflag data from column: 5
Info: STRUCTURE SUMMARY:
Info: 2981 ATOMS
Info: 2980 BONDS
Info: 48 ANGLES
Info: 75 DIHEDRALS
Info: 0 IMPROPERS
Info: 0 CROSSTERMS
Info: 3091 EXCLUSIONS
Info: 2972 RIGID BONDS
Info: ALCH: 0 ATOMS TO DISAPPEAR IN FINAL STATE
Info: ALCH: 26 ATOMS TO APPEAR IN FINAL STATE
Info: 5971 DEGREES OF FREEDOM
Info: 994 HYDROGEN GROUPS
Info: 4 ATOMS IN LARGEST HYDROGEN GROUP
Info: 994 MIGRATION GROUPS
Info: 4 ATOMS IN LARGEST MIGRATION GROUP
Info: TOTAL MASS = 17938.9 amu
Info: TOTAL CHARGE = 3.07336e-08 e
Info: MASS DENSITY = 0.973654 g/cm^3
Info: ATOM DENSITY = 0.0974343 atoms/A^3
Info: ADDED 0 IMPLICIT EXCLUSIONS
Info: NONBONDED TABLE R-SQUARED SPACING: 0.0625
Info: NONBONDED TABLE SIZE: 705 POINTS
Info: REMOVING COM VELOCITY 0.165505 0.166349 0.016188
Info: Use 3D box decompostion in PME FFT.
Info: Updated CUDA force table with 4096 elements.
Info: Updated CUDA LJ table with 6 x 6 elements.
Info: Found 29 unique exclusion lists needing 104 bytes
TCL: Running for 1500000 steps
ETITLE: TS BOND ANGLE DIHED IMPRP ELECT VDW BOUNDARY MISC KINETIC TOTAL TEMP POTENTIAL TOTALAVG TEMPAVG PRESSURE GPRESSURE VOLUME PRESSAVG GPRESSAVG
ENERGY: 0 3.2345 6.7968 5.6526 0.0000 -10647.4862 1402.4138 0.0000 0.0000 1766.9475 -7462.4411 297.8290 -9229.3886 -7462.4411 297.8290 -376.8770 -297.8743 30594.9698 -376.8770 -297.8743
ENERGY: 300000 1.6892 13.8260 3.9378 0.0000 -10668.9099 1372.8701 0.0000 0.0000 1759.4673 -7517.1195 296.5682 -9276.5868 -7463.3614 300.8002 -622.8394 -557.9796 30415.1308 -394.8500 -309.2602
ENERGY: 600000 1.9304 9.9201 4.7875 0.0000 -10729.8076 1481.2720 0.0000 0.0000 1717.8211 -7514.0765 289.5485 -9231.8977 -7475.7257 301.2549 288.0329 345.1367 30592.4636 -208.6149 -143.1150
ENERGY: 900000 2.5731 12.4173 6.9312 0.0000 -10814.5236 1468.6115 0.0000 0.0000 1802.5399 -7521.4506 303.8283 -9323.9905 -7477.9059 302.2282 -64.5845 118.9187 30240.4185 -104.0484 -27.7625
ENERGY: 1200000 2.1096 15.8753 9.3090 0.0000 -10774.3623 1493.0824 0.0000 0.0000 1810.4391 -7443.5470 305.1597 -9253.9861 -7480.9566 301.2005 1084.0881 1063.2699 29834.5993 21.9702 80.2965
ENERGY: 1500000 1.4722 11.9635 6.9449 0.0000 -10814.0413 1478.7167 0.0000 0.0000 1779.5667 -7535.3773 299.9560 -9314.9440 -7488.1731 300.8778 211.7696 214.2486 30254.3002 58.3203 108.8605
TCL: Running FEP window   2: Lambda1 0.05   Lambda2 0.1    [dLambda 0.05  ]
TCL: Setting parameter firsttimestep to 0
TCL: Setting parameter alchLambda to 0.05
Info: NONBONDED TABLE R-SQUARED SPACING: 0.0625
Info: NONBONDED TABLE SIZE: 705 POINTS
TCL: Setting parameter alchLambda2 to 0.1
Info: NONBONDED TABLE R-SQUARED SPACING: 0.0625
Info: NONBONDED TABLE SIZE: 705 POINTS
TCL: Running for 1500000 steps
ETITLE: TS BOND ANGLE DIHED IMPRP ELECT VDW BOUNDARY MISC KINETIC TOTAL TEMP POTENTIAL TOTALAVG TEMPAVG PRESSURE GPRESSURE VOLUME PRESSAVG GPRESSAVG
ENERGY: 0 1.4722 11.9635 6.9449 0.0000 -10814.0417 1481.4526 0.0000 0.0000 1778.6763 -7533.5322 299.8059 -9312.2085 -7533.5322 299.8059 144.9672 224.4279 30254.3002 144.9672 224.4279
ENERGY: 300000 3.0327 13.7826 7.1560 0.0000 -10710.4938 1433.9502 0.0000 0.0000 1750.5510 -7502.0212 295.0653 -9252.5722 -7485.9597 301.5492 -321.1035 -226.8147 30901.3438 262.8963 316.7539
ENERGY: 600000 4.0757 14.5444 3.8786 0.0000 -10662.3110 1379.8457 0.0000 0.0000 1813.2621 -7446.7044 305.6356 -9259.9666 -7488.2251 301.5382 -573.6405 -535.8117 30602.9138 -36.9323 2.3190
ENERGY: 900000 0.7896 9.7259 8.5018 0.0000 -10678.3523 1337.8382 0.0000 0.0000 1788.2873 -7533.2096 301.4259 -9321.4969 -7496.5633 302.0191 -975.6741 -907.7511 30539.0547 -275.7889 -230.0672
ENERGY: 1200000 0.5397 9.3775 4.3246 0.0000 -10820.6095 1456.9905 0.0000 0.0000 1788.8055 -7560.5718 301.5133 -9349.3773 -7499.3303 300.5937 -184.0162 -116.1138 30624.4298 -314.6222 -264.4549
ENERGY: 1500000 2.4120 13.8896 6.4241 0.0000 -10696.9400 1365.7754 0.0000 0.0000 1792.2075 -7516.2314 302.0867 -9308.4389 -7501.8237 300.0798 -885.3236 -771.2717 30612.9392 -393.9675 -333.3844
TCL: Running FEP window   3: Lambda1 0.1    Lambda2 0.15000000000000002 [dLambda 0.05000000000000002]
TCL: Setting parameter firsttimestep to 0
TCL: Setting parameter alchLambda to 0.1
Info: NONBONDED TABLE R-SQUARED SPACING: 0.0625
Info: NONBONDED TABLE SIZE: 705 POINTS
TCL: Setting parameter alchLambda2 to 0.15000000000000002
Info: NONBONDED TABLE R-SQUARED SPACING: 0.0625
Info: NONBONDED TABLE SIZE: 705 POINTS
TCL: Running for 1500000 steps
ETITLE: TS BOND ANGLE DIHED IMPRP ELECT VDW BOUNDARY MISC KINETIC TOTAL TEMP POTENTIAL TOTALAVG TEMPAVG PRESSURE GPRESSURE VOLUME PRESSAVG GPRESSAVG
ENERGY: 0 2.4120 13.8896 6.4241 0.0000 -10696.9405 1367.2605 0.0000 0.0000 1791.2646 -7515.6897 301.9278 -9306.9543 -7515.6897 301.9278 -836.0165 -760.7107 30612.9392 -836.0165 -760.7107
ENERGY: 300000 1.3374 12.4264 7.2608 0.0000 -10787.4251 1461.4248 0.0000 0.0000 1826.6685 -7478.3071 307.8953 -9304.9756 -7491.1472 301.2261 328.2262 369.3019 30266.9660 -325.7637 -259.6535
ENERGY: 600000 2.8837 9.9057 7.4607 0.0000 -10684.1553 1403.0865 0.0000 0.0000 1728.6942 -7532.1245 291.3812 -9260.8186 -7495.5094 299.7171 -445.8853 -369.9003 30484.2525 -149.3365 -88.3995
ENERGY: 900000 2.0399 11.3484 3.8431 0.0000 -10698.4215 1401.6782 0.0000 0.0000 1795.6341 -7483.8780 302.6643 -9279.5121 -7504.0078 300.1804 -257.9841 -240.5070 30468.2415 -14.6334 46.5013
ENERGY: 1200000 4.7114 14.4904 5.9612 0.0000 -10829.8862 1496.1036 0.0000 0.0000 1721.7960 -7586.8236 290.2184 -9308.6196 -7512.5537 299.1049 123.3635 184.6553 30368.2573 39.7767 93.0055
ENERGY: 1500000 4.1635 17.2525 5.0053 0.0000 -10695.9713 1446.1554 0.0000 0.0000 1769.9837 -7453.4109 298.3408 -9223.3946 -7512.2501 298.9941 -135.4272 -46.9240 30720.3741 36.3446 93.8289
TCL: Running FEP window   4: Lambda1 0.15000000000000002 Lambda2 0.2    [dLambda 0.04999999999999999]
TCL: Setting parameter firsttimestep to 0
TCL: Setting parameter alchLambda to 0.15000000000000002
Info: NONBONDED TABLE R-SQUARED SPACING: 0.0625
Info: NONBONDED TABLE SIZE: 705 POINTS
TCL: Setting parameter alchLambda2 to 0.2
Info: NONBONDED TABLE R-SQUARED SPACING: 0.0625
Info: NONBONDED TABLE SIZE: 705 POINTS
TCL: Running for 1500000 steps
ETITLE: TS BOND ANGLE DIHED IMPRP ELECT VDW BOUNDARY MISC KINETIC TOTAL TEMP POTENTIAL TOTALAVG TEMPAVG PRESSURE GPRESSURE VOLUME PRESSAVG GPRESSAVG
ENERGY: 0 4.1635 17.2525 5.0053 0.0000 -10695.9700 1448.5063 0.0000 0.0000 1769.0993 -7451.9431 298.1917 -9221.0424 -7451.9431 298.1917 -110.0426 -32.1890 30720.3741 -110.0426 -32.1890
ENERGY: 300000 1.9857 13.6735 6.3775 0.0000 -10705.3034 1390.5988 0.0000 0.0000 1853.4021 -7439.2658 312.4014 -9292.6678 -7428.3918 306.3444 -289.4247 -224.7618 30244.0075 -184.5443 -118.8744
ENERGY: 600000 1.4586 13.6769 6.6171 0.0000 -10837.2149 1492.0285 0.0000 0.0000 1836.2552 -7487.1786 309.5112 -9323.4338 -7453.4293 305.3304 93.7030 169.2695 30534.8453 -84.2977 -2.7778
ENERGY: 900000 3.7858 7.7498 7.9651 0.0000 -10672.7459 1398.8022 0.0000 0.0000 1782.6469 -7471.7961 300.4752 -9254.4430 -7460.7192 303.4760 -395.8706 -283.7693 30311.8847 -133.5241 -56.7069
ENERGY: 1200000 2.0610 13.2367 6.5258 0.0000 -10663.9167 1345.8105 0.0000 0.0000 1767.4858 -7528.7968 297.9197 -9296.2826 -7476.4151 302.7114 -786.1661 -730.4582 30371.1738 -61.4665 9.7461
ENERGY: 1500000 1.1697 16.3827 4.7483 0.0000 -10808.1881 1463.9042 0.0000 0.0000 1769.5687 -7552.4145 298.2708 -9321.9832 -7482.8865 302.0264 173.7404 229.6070 30194.2187 -42.1810 29.6953
TCL: Running FEP window   5: Lambda1 0.2    Lambda2 0.25   [dLambda 0.04999999999999999]
TCL: Setting parameter firsttimestep to 0
TCL: Setting parameter alchLambda to 0.2
Info: NONBONDED TABLE R-SQUARED SPACING: 0.0625
Info: NONBONDED TABLE SIZE: 705 POINTS
TCL: Setting parameter alchLambda2 to 0.25
Info: NONBONDED TABLE R-SQUARED SPACING: 0.0625
Info: NONBONDED TABLE SIZE: 705 POINTS
TCL: Running for 1500000 steps
ETITLE: TS BOND ANGLE DIHED IMPRP ELECT VDW BOUNDARY MISC KINETIC TOTAL TEMP POTENTIAL TOTALAVG TEMPAVG PRESSURE GPRESSURE VOLUME PRESSAVG GPRESSAVG
ENERGY: 0 1.1697 16.3827 4.7483 0.0000 -10808.1890 1463.8876 0.0000 0.0000 1768.6686 -7553.3321 298.1191 -9322.0007 -7553.3321 298.1191 148.3099 236.4404 30194.2187 148.3099 236.4404
ENERGY: 300000 2.4408 8.9460 4.1240 0.0000 -10661.2954 1383.7747 0.0000 0.0000 1740.3004 -7521.7096 293.3375 -9262.0100 -7544.6097 298.3311 -210.7865 -132.3704 30112.0905 -8.4264 65.4981
ENERGY: 600000 2.2071 11.2311 6.3622 0.0000 -10852.7375 1443.3347 0.0000 0.0000 1795.1680 -7594.4343 302.5857 -9389.6023 -7528.8806 299.6253 -447.5457 -364.5002 30522.1113 -199.9738 -124.1143
ENERGY: 900000 1.6727 11.8092 5.0482 0.0000 -10789.7277 1426.0713 0.0000 0.0000 1768.2439 -7576.8825 298.0475 -9345.1263 -7528.6387 299.1024 -666.4350 -553.5967 30947.5005 -217.4231 -140.5535
ENERGY: 1200000 3.1738 14.2968 5.5126 0.0000 -10727.2036 1384.2551 0.0000 0.0000 1806.9035 -7513.0618 304.5638 -9319.9653 -7529.7610 298.5375 -676.3154 -599.2040 30305.4259 -276.0546 -197.9680
ENERGY: 1500000 1.4809 9.6164 4.8305 0.0000 -10631.0843 1386.5625 0.0000 0.0000 1763.8139 -7464.7801 297.3008 -9228.5940 -7520.2466 299.5624 -202.3244 -149.5408 30582.8615 -218.6680 -142.0766
TCL: Running FEP window   6: Lambda1 0.25   Lambda2 0.3    [dLambda 0.04999999999999999]
TCL: Setting parameter firsttimestep to 0
TCL: Setting parameter alchLambda to 0.25
Info: NONBONDED TABLE R-SQUARED SPACING: 0.0625
Info: NONBONDED TABLE SIZE: 705 POINTS
TCL: Setting parameter alchLambda2 to 0.3
Info: NONBONDED TABLE R-SQUARED SPACING: 0.0625
Info: NONBONDED TABLE SIZE: 705 POINTS
TCL: Running for 1500000 steps
ETITLE: TS BOND ANGLE DIHED IMPRP ELECT VDW BOUNDARY MISC KINETIC TOTAL TEMP POTENTIAL TOTALAVG TEMPAVG PRESSURE GPRESSURE VOLUME PRESSAVG GPRESSAVG
ENERGY: 0 1.4809 9.6164 4.8305 0.0000 -10631.0845 1386.8119 0.0000 0.0000 1762.9273 -7465.4175 297.1514 -9228.3448 -7465.4175 297.1514 -243.4588 -140.4147 30582.8615 -243.4588 -140.4147
ENERGY: 300000 1.7337 13.6576 4.6491 0.0000 -10657.2805 1412.2527 0.0000 0.0000 1807.6746 -7417.3130 304.6938 -9224.9875 -7451.9487 303.6613 -230.4892 -194.6802 30816.7193 -146.1718 -88.4982
ENERGY: 600000 4.1795 10.6148 6.3877 0.0000 -10908.1797 1547.6072 0.0000 0.0000 1808.9014 -7530.4892 304.9005 -9339.3905 -7467.7611 305.2526 507.4520 598.1808 30548.5580 -96.0728 -27.1700
ENERGY: 900000 3.7826 8.4125 4.1886 0.0000 -10716.0940 1344.5884 0.0000 0.0000 1749.7787 -7605.3432 294.9351 -9355.1219 -7489.7184 303.1778 -1217.5242 -1183.3992 30934.7072 -279.3302 -220.4796
ENERGY: 1200000 1.3580 17.5483 6.5381 0.0000 -10698.6207 1380.0343 0.0000 0.0000 1740.5446 -7552.5974 293.3786 -9293.1420 -7493.6135 301.5315 -711.0499 -613.3141 30793.0598 -288.5359 -230.3751
ENERGY: 1500000 2.2965 10.7275 5.5483 0.0000 -10723.7841 1453.4363 0.0000 0.0000 1788.5264 -7463.2491 301.4662 -9251.7755 -7493.5012 301.8353 -19.3379 -9.2790 30883.7703 -246.0423 -192.2209
TCL: Running FEP window   7: Lambda1 0.3    Lambda2 0.35   [dLambda 0.04999999999999999]
TCL: Setting parameter firsttimestep to 0
TCL: Setting parameter alchLambda to 0.3
Info: NONBONDED TABLE R-SQUARED SPACING: 0.0625
Info: NONBONDED TABLE SIZE: 705 POINTS
TCL: Setting parameter alchLambda2 to 0.35
Info: NONBONDED TABLE R-SQUARED SPACING: 0.0625
Info: NONBONDED TABLE SIZE: 705 POINTS
TCL: Running for 1500000 steps
ETITLE: TS BOND ANGLE DIHED IMPRP ELECT VDW BOUNDARY MISC KINETIC TOTAL TEMP POTENTIAL TOTALAVG TEMPAVG PRESSURE GPRESSURE VOLUME PRESSAVG GPRESSAVG
ENERGY: 0 2.2965 10.7275 5.5483 0.0000 -10723.7845 1453.5628 0.0000 0.0000 1787.6505 -7463.9989 301.3186 -9251.6494 -7463.9989 301.3186 -76.6759 -3.9073 30883.7703 -76.6759 -3.9073
ENERGY: 300000 2.2332 11.6789 3.9678 0.0000 -10684.5848 1396.0554 0.0000 0.0000 1755.9346 -7514.7148 295.9727 -9270.6494 -7513.0175 299.8039 -320.9396 -286.3522 30566.0129 -269.7460 -191.5593
ENERGY: 600000 2.0282 11.4360 5.9555 0.0000 -10814.9671 1498.8996 0.0000 0.0000 1811.8009 -7484.8469 305.3893 -9296.6478 -7508.2840 300.6684 744.2304 780.0525 29945.2033 -152.1518 -94.0214
ENERGY: 900000 4.6389 12.2746 7.0784 0.0000 -10805.1815 1503.0024 0.0000 0.0000 1807.3250 -7470.8622 304.6348 -9278.1872 -7511.5237 299.6543 303.5571 383.8370 30428.8468 -165.3970 -107.0708
ENERGY: 1200000 0.8334 12.3780 5.2072 0.0000 -10731.7082 1399.9442 0.0000 0.0000 1753.6748 -7559.6706 295.5918 -9313.3454 -7531.4664 298.8584 -564.0100 -493.0962 30506.8290 -125.2676 -67.4549
ENERGY: 1500000 2.8133 14.6506 6.7502 0.0000 -10813.0145 1508.1881 0.0000 0.0000 1794.0705 -7486.5417 302.4007 -9280.6122 -7525.4158 298.7930 361.7347 489.5729 30496.2420 -55.7768 5.0912
TCL: Running FEP window   8: Lambda1 0.35   Lambda2 0.39999999999999997 [dLambda 0.04999999999999999]
TCL: Setting parameter firsttimestep to 0
TCL: Setting parameter alchLambda to 0.35
Info: NONBONDED TABLE R-SQUARED SPACING: 0.0625
Info: NONBONDED TABLE SIZE: 705 POINTS
TCL: Setting parameter alchLambda2 to 0.39999999999999997
Info: NONBONDED TABLE R-SQUARED SPACING: 0.0625
Info: NONBONDED TABLE SIZE: 705 POINTS
TCL: Running for 1500000 steps
ETITLE: TS BOND ANGLE DIHED IMPRP ELECT VDW BOUNDARY MISC KINETIC TOTAL TEMP POTENTIAL TOTALAVG TEMPAVG PRESSURE GPRESSURE VOLUME PRESSAVG GPRESSAVG
ENERGY: 0 2.8133 14.6506 6.7502 0.0000 -10813.0128 1508.8464 0.0000 0.0000 1793.1574 -7486.7948 302.2468 -9279.9522 -7486.7948 302.2468 424.7254 501.4073 30496.2420 424.7254 501.4073
ENERGY: 300000 2.5717 13.3454 7.0596 0.0000 -10747.7930 1426.1260 0.0000 0.0000 1780.1015 -7518.5888 300.0462 -9298.6903 -7511.4694 298.3707 -590.9748 -478.1469 31079.8641 -156.5549 -79.2003
ENERGY: 600000 3.1740 14.3700 6.5890 0.0000 -10746.0793 1412.4424 0.0000 0.0000 1804.5146 -7504.9893 304.1611 -9309.5040 -7508.4513 299.9642 -650.2824 -586.3191 31387.5345 -201.1551 -134.0958
ENERGY: 900000 3.5512 12.8114 5.4213 0.0000 -10769.3092 1448.7444 0.0000 0.0000 1784.2380 -7514.5428 300.7434 -9298.7808 -7512.7159 300.1364 -191.6078 -157.0026 30409.2009 -202.1639 -127.7014
ENERGY: 1200000 5.4534 14.0650 7.6925 0.0000 -10746.9564 1435.4814 0.0000 0.0000 1775.2698 -7508.9942 299.2318 -9284.2640 -7515.1734 299.4292 -72.9968 39.4669 30485.3649 -99.1118 -27.7371
ENERGY: 1500000 3.5266 12.9238 4.8553 0.0000 -10735.2498 1379.3457 0.0000 0.0000 1766.6717 -7567.9268 297.7825 -9334.5984 -7514.4492 300.2585 -787.6426 -683.5630 30439.8873 -127.5892 -60.0363
TCL: Running FEP window   9: Lambda1 0.39999999999999997 Lambda2 0.44999999999999996 [dLambda 0.04999999999999999]
TCL: Setting parameter firsttimestep to 0
TCL: Setting parameter alchLambda to 0.39999999999999997
Info: NONBONDED TABLE R-SQUARED SPACING: 0.0625
Info: NONBONDED TABLE SIZE: 705 POINTS
TCL: Setting parameter alchLambda2 to 0.44999999999999996
Info: NONBONDED TABLE R-SQUARED SPACING: 0.0625
Info: NONBONDED TABLE SIZE: 705 POINTS
TCL: Running for 1500000 steps
ETITLE: TS BOND ANGLE DIHED IMPRP ELECT VDW BOUNDARY MISC KINETIC TOTAL TEMP POTENTIAL TOTALAVG TEMPAVG PRESSURE GPRESSURE VOLUME PRESSAVG GPRESSAVG
ENERGY: 0 3.5266 12.9238 4.8553 0.0000 -10735.2498 1378.6737 0.0000 0.0000 1765.8079 -7569.4626 297.6369 -9335.2705 -7569.4626 297.6369 -771.4129 -683.0430 30439.8873 -771.4129 -683.0430
ENERGY: 300000 3.6706 13.4109 4.7940 0.0000 -10766.5669 1473.5170 0.0000 0.0000 1762.8441 -7508.3303 297.1373 -9271.1744 -7558.4974 299.7636 209.7917 307.1597 30427.0827 -243.0656 -162.6316
ENERGY: 600000 3.0269 13.1783 9.4439 0.0000 -10679.2494 1399.7114 0.0000 0.0000 1775.5816 -7478.3073 299.2843 -9253.8889 -7548.2574 298.4840 -287.3750 -249.1938 30905.3644 -57.1990 22.1715
ENERGY: 900000 1.8484 13.5387 6.2315 0.0000 -10789.9948 1499.5648 0.0000 0.0000 1750.8493 -7517.9621 295.1155 -9268.8114 -7542.4949 297.8059 458.6307 495.4305 30374.4370 -82.6358 -17.0893
ENERGY: 1200000 1.4170 13.1519 4.1092 0.0000 -10833.8494 1462.0458 0.0000 0.0000 1748.0351 -7605.0906 294.6412 -9353.1256 -7545.0375 297.1926 -139.0450 -59.7002 30640.8609 -112.9256 -48.2217
ENERGY: 1500000 4.0101 10.0872 4.2439 0.0000 -10722.1688 1454.3510 0.0000 0.0000 1769.7916 -7479.6850 298.3084 -9249.4766 -7540.4411 297.0798 115.3790 139.6126 30755.3708 -90.9705 -25.3394
TCL: Running FEP window  10: Lambda1 0.44999999999999996 Lambda2 0.49999999999999994 [dLambda 0.04999999999999999]
TCL: Setting parameter firsttimestep to 0
TCL: Setting parameter alchLambda to 0.44999999999999996
Info: NONBONDED TABLE R-SQUARED SPACING: 0.0625
Info: NONBONDED TABLE SIZE: 705 POINTS
TCL: Setting parameter alchLambda2 to 0.49999999999999994
Info: NONBONDED TABLE R-SQUARED SPACING: 0.0625
Info: NONBONDED TABLE SIZE: 705 POINTS
TCL: Running for 1500000 steps
ETITLE: TS BOND ANGLE DIHED IMPRP ELECT VDW BOUNDARY MISC KINETIC TOTAL TEMP POTENTIAL TOTALAVG TEMPAVG PRESSURE GPRESSURE VOLUME PRESSAVG GPRESSAVG
ENERGY: 0 4.0101 10.0872 4.2439 0.0000 -10722.1682 1454.2831 0.0000 0.0000 1768.8722 -7480.6717 298.1534 -9249.5439 -7480.6717 298.1534 48.2330 146.6709 30755.3708 48.2330 146.6709
ENERGY: 300000 2.2918 10.2908 3.5066 0.0000 -10878.6802 1494.3283 0.0000 0.0000 1750.8468 -7617.4158 295.1151 -9368.2626 -7504.7406 296.8786 61.9975 88.1259 30660.1219 26.2797 78.7165
ENERGY: 600000 1.5192 6.4406 5.4584 0.0000 -10760.2362 1452.5424 0.0000 0.0000 1773.6306 -7520.6450 298.9555 -9294.2756 -7517.0973 296.1899 187.7357 253.1224 30192.0961 -81.2000 -26.5156
ENERGY: 900000 1.1530 11.5593 6.7853 0.0000 -10748.1518 1462.5368 0.0000 0.0000 1753.7239 -7512.3935 295.6001 -9266.1175 -7526.0621 297.6402 212.1642 287.7087 30598.9841 -79.9403 -17.7364
ENERGY: 1200000 0.8006 11.7282 4.9389 0.0000 -10716.4603 1405.2280 0.0000 0.0000 1763.5871 -7530.1776 297.2626 -9293.7646 -7506.4072 299.0780 -291.3503 -200.1060 30366.1575 -157.8465 -89.3153
ENERGY: 1500000 1.1774 18.3578 4.5423 0.0000 -10752.9414 1422.6273 0.0000 0.0000 1778.4732 -7527.7635 299.7717 -9306.2367 -7500.8276 299.6367 27.9378 112.1671 30046.6069 -77.6752 -8.6021
TCL: Running FEP window  11: Lambda1 0.49999999999999994 Lambda2 0.5499999999999999 [dLambda 0.04999999999999999]
TCL: Setting parameter firsttimestep to 0
TCL: Setting parameter alchLambda to 0.49999999999999994
Info: NONBONDED TABLE R-SQUARED SPACING: 0.0625
Info: NONBONDED TABLE SIZE: 705 POINTS
TCL: Setting parameter alchLambda2 to 0.5499999999999999
Info: NONBONDED TABLE R-SQUARED SPACING: 0.0625
Info: NONBONDED TABLE SIZE: 705 POINTS
TCL: Running for 1500000 steps
ETITLE: TS BOND ANGLE DIHED IMPRP ELECT VDW BOUNDARY MISC KINETIC TOTAL TEMP POTENTIAL TOTALAVG TEMPAVG PRESSURE GPRESSURE VOLUME PRESSAVG GPRESSAVG
ENERGY: 0 1.1774 18.3578 4.5423 0.0000 -10752.9421 1423.1953 0.0000 0.0000 1777.5613 -7528.1080 299.6180 -9305.6693 -7528.1080 299.6180 49.7590 126.0768 30046.6069 49.7590 126.0768
ENERGY: 300000 1.2639 19.2665 4.3639 0.0000 -10673.4611 1405.9744 0.0000 0.0000 1746.6519 -7495.9405 294.4080 -9242.5924 -7446.4814 302.7308 -391.5247 -344.8210 31031.8213 64.0159 121.3762
ENERGY: 600000 0.5645 8.0976 5.3795 0.0000 -10685.2144 1383.2000 0.0000 0.0000 1806.0930 -7481.8798 304.4272 -9287.9728 -7465.5930 303.0646 -539.6532 -466.4401 30982.2840 28.9218 90.7734
ENERGY: 900000 3.1406 9.4783 5.0520 0.0000 -10754.0868 1439.1484 0.0000 0.0000 1799.6463 -7497.6213 303.3405 -9297.2675 -7466.2627 303.8544 72.0233 169.8775 30111.6910 58.0443 134.6192
ENERGY: 1200000 4.0667 18.8032 5.8493 0.0000 -10785.3929 1434.5435 0.0000 0.0000 1765.4636 -7556.6666 297.5789 -9322.1302 -7477.7919 302.6789 -319.4347 -197.0952 30310.0952 144.9669 221.1767
ENERGY: 1500000 1.3553 9.5132 3.7572 0.0000 -10760.8424 1435.5584 0.0000 0.0000 1771.8279 -7538.8304 298.6516 -9310.6584 -7481.2354 302.7967 -217.7734 -167.9624 30833.9971 114.1838 188.9337
TCL: Running FEP window  12: Lambda1 0.5499999999999999 Lambda2 0.6    [dLambda 0.050000000000000044]
TCL: Setting parameter firsttimestep to 0
TCL: Setting parameter alchLambda to 0.5499999999999999
Info: NONBONDED TABLE R-SQUARED SPACING: 0.0625
Info: NONBONDED TABLE SIZE: 705 POINTS
TCL: Setting parameter alchLambda2 to 0.6
Info: NONBONDED TABLE R-SQUARED SPACING: 0.0625
Info: NONBONDED TABLE SIZE: 705 POINTS
TCL: Running for 1500000 steps
ETITLE: TS BOND ANGLE DIHED IMPRP ELECT VDW BOUNDARY MISC KINETIC TOTAL TEMP POTENTIAL TOTALAVG TEMPAVG PRESSURE GPRESSURE VOLUME PRESSAVG GPRESSAVG
ENERGY: 0 1.3553 9.5131 3.7572 0.0000 -10760.7679 1435.6992 0.0000 0.0000 1770.9267 -7539.5165 298.4997 -9310.4432 -7539.5165 298.4997 -254.4784 -155.9463 30833.9971 -254.4784 -155.9463
ENERGY: 300000 1.8352 14.7444 5.9449 0.0000 -10841.5956 1477.4664 0.0000 0.0000 1803.4110 -7538.1937 303.9751 -9341.6047 -7506.3853 299.4579 -18.8846 87.9129 30581.0967 -73.6890 -10.0194
ENERGY: 600000 2.4269 11.3107 6.5251 0.0000 -10680.4853 1442.3783 0.0000 0.0000 1792.1051 -7425.7391 302.0694 -9217.8443 -7505.3989 298.4800 239.9235 249.5338 30616.8726 6.0336 65.7813
ENERGY: 900000 2.3754 14.2307 4.3751 0.0000 -10791.9452 1420.5175 0.0000 0.0000 1760.1241 -7590.3223 296.6789 -9350.4464 -7522.4681 297.0007 -382.2274 -328.5743 30285.1427 -23.4914 37.3161
ENERGY: 1200000 1.7802 15.1259 6.2203 0.0000 -10790.9553 1474.3784 0.0000 0.0000 1777.8091 -7515.6414 299.6598 -9293.4505 -7524.5658 297.1707 255.8727 301.6678 30760.5488 -91.2507 -28.4572
ENERGY: 1500000 0.9847 11.4574 4.7663 0.0000 -10758.7905 1428.0022 0.0000 0.0000 1770.7186 -7542.8614 298.4646 -9313.5800 -7520.5481 296.9102 -168.1570 -120.1335 30662.1145 -73.8849 -15.5807
TCL: Running FEP window  13: Lambda1 0.6    Lambda2 0.65   [dLambda 0.050000000000000044]
TCL: Setting parameter firsttimestep to 0
TCL: Setting parameter alchLambda to 0.6
Info: NONBONDED TABLE R-SQUARED SPACING: 0.0625
Info: NONBONDED TABLE SIZE: 705 POINTS
TCL: Setting parameter alchLambda2 to 0.65
Info: NONBONDED TABLE R-SQUARED SPACING: 0.0625
Info: NONBONDED TABLE SIZE: 705 POINTS
TCL: Running for 1500000 steps
ETITLE: TS BOND ANGLE DIHED IMPRP ELECT VDW BOUNDARY MISC KINETIC TOTAL TEMP POTENTIAL TOTALAVG TEMPAVG PRESSURE GPRESSURE VOLUME PRESSAVG GPRESSAVG
ENERGY: 0 0.9847 11.4574 4.7663 0.0000 -10758.7792 1427.6822 0.0000 0.0000 1769.8540 -7544.0347 298.3189 -9313.8887 -7544.0347 298.3189 -190.9326 -112.3409 30662.1145 -190.9326 -112.3409
ENERGY: 300000 2.3033 9.5266 4.6158 0.0000 -10764.0786 1499.0987 0.0000 0.0000 1821.6899 -7426.8444 307.0561 -9248.5342 -7516.3117 301.1742 489.3495 540.5652 30792.5989 210.3272 272.5697
ENERGY: 600000 2.2392 11.0318 4.0177 0.0000 -10843.8941 1519.7846 0.0000 0.0000 1812.1441 -7494.6767 305.4471 -9306.8208 -7524.2785 299.2818 628.8883 717.8607 30285.2843 164.8824 222.7417
ENERGY: 900000 1.6749 12.0104 4.5373 0.0000 -10808.7764 1506.9815 0.0000 0.0000 1792.3954 -7491.1769 302.1184 -9283.5723 -7506.3173 300.8354 889.3159 896.2157 30238.9016 288.0326 332.6597
ENERGY: 1200000 1.7890 8.1866 3.8064 0.0000 -10701.1542 1422.6223 0.0000 0.0000 1754.1547 -7510.5951 295.6727 -9264.7499 -7524.5469 298.6785 -303.5891 -200.3846 30817.8923 191.3930 235.3575
ENERGY: 1500000 1.2049 11.6369 6.3099 0.0000 -10735.4791 1378.3038 0.0000 0.0000 1796.9919 -7541.0317 302.8931 -9338.0237 -7526.9324 298.9078 -574.2506 -531.8781 30572.6100 122.7948 174.3416
TCL: Running FEP window  14: Lambda1 0.65   Lambda2 0.7000000000000001 [dLambda 0.050000000000000044]
TCL: Setting parameter firsttimestep to 0
TCL: Setting parameter alchLambda to 0.65
Info: NONBONDED TABLE R-SQUARED SPACING: 0.0625
Info: NONBONDED TABLE SIZE: 705 POINTS
TCL: Setting parameter alchLambda2 to 0.7000000000000001
Info: NONBONDED TABLE R-SQUARED SPACING: 0.0625
Info: NONBONDED TABLE SIZE: 705 POINTS
TCL: Running for 1500000 steps
ETITLE: TS BOND ANGLE DIHED IMPRP ELECT VDW BOUNDARY MISC KINETIC TOTAL TEMP POTENTIAL TOTALAVG TEMPAVG PRESSURE GPRESSURE VOLUME PRESSAVG GPRESSAVG
ENERGY: 0 1.2049 11.6369 6.3099 0.0000 -10735.5848 1378.1021 0.0000 0.0000 1796.0899 -7542.2410 302.7411 -9338.3310 -7542.2410 302.7411 -605.2314 -523.4697 30572.6100 -605.2314 -523.4697
ENERGY: 300000 1.4128 16.5294 6.1233 0.0000 -10772.7716 1485.1930 0.0000 0.0000 1744.8914 -7518.6216 294.1113 -9263.5131 -7507.1926 298.0538 353.0851 477.3366 30462.0549 -58.8432 23.5057
ENERGY: 600000 1.7404 15.3397 4.5351 0.0000 -10893.3408 1511.5539 0.0000 0.0000 1765.4675 -7594.7043 297.5795 -9360.1718 -7511.1375 298.1096 518.5761 556.0486 30168.6288 -1.6205 72.1566
ENERGY: 900000 4.8051 13.1183 6.3227 0.0000 -10669.4787 1389.6003 0.0000 0.0000 1746.7598 -7508.8724 294.4262 -9255.6322 -7505.6498 298.6009 -674.0356 -608.5803 30872.6305 -18.2657 48.5423
ENERGY: 1200000 1.5181 9.8546 4.8584 0.0000 -10639.1316 1333.5100 0.0000 0.0000 1720.9202 -7568.4703 290.0708 -9289.3905 -7498.4905 299.0946 -908.2514 -861.1674 30931.8638 38.3226 97.4502
ENERGY: 1500000 2.7862 15.7278 3.9203 0.0000 -10800.7469 1444.6320 0.0000 0.0000 1780.5028 -7553.1778 300.1138 -9333.6805 -7506.4233 299.3136 -190.6550 -128.9380 30835.0701 -32.8197 26.9099
TCL: Running FEP window  15: Lambda1 0.7000000000000001 Lambda2 0.7500000000000001 [dLambda 0.050000000000000044]
TCL: Setting parameter firsttimestep to 0
TCL: Setting parameter alchLambda to 0.7000000000000001
Info: NONBONDED TABLE R-SQUARED SPACING: 0.0625
Info: NONBONDED TABLE SIZE: 705 POINTS
TCL: Setting parameter alchLambda2 to 0.7500000000000001
Info: NONBONDED TABLE R-SQUARED SPACING: 0.0625
Info: NONBONDED TABLE SIZE: 705 POINTS
TCL: Running for 1500000 steps
ETITLE: TS BOND ANGLE DIHED IMPRP ELECT VDW BOUNDARY MISC KINETIC TOTAL TEMP POTENTIAL TOTALAVG TEMPAVG PRESSURE GPRESSURE VOLUME PRESSAVG GPRESSAVG
ENERGY: 0 2.7862 15.7278 3.9203 0.0000 -10801.0066 1444.1558 0.0000 0.0000 1779.6037 -7554.8128 299.9623 -9334.4165 -7554.8128 299.9623 -216.3366 -123.9523 30835.0701 -216.3366 -123.9523
ENERGY: 300000 1.2475 14.4590 5.8755 0.0000 -10709.2172 1399.3860 0.0000 0.0000 1795.7961 -7492.4530 302.6916 -9288.2491 -7487.3072 302.3694 -184.0568 -105.2487 30382.2927 -55.5577 28.6996
ENERGY: 600000 2.4993 13.8125 7.2077 0.0000 -10572.5375 1352.2112 0.0000 0.0000 1799.4783 -7397.3285 303.3122 -9196.8068 -7488.7564 301.8125 -404.6309 -359.0495 30995.9842 -174.3800 -96.1311
ENERGY: 900000 3.2846 12.1055 5.6382 0.0000 -10624.2519 1372.9139 0.0000 0.0000 1799.5966 -7430.7131 303.3322 -9230.3097 -7480.8436 302.1522 -199.3848 -200.8508 30437.2544 -121.4043 -56.0683
ENERGY: 1200000 1.1097 7.3102 7.2051 0.0000 -10834.4522 1477.5488 0.0000 0.0000 1787.8881 -7553.3903 301.3586 -9341.2784 -7489.2040 301.4736 307.1284 339.7783 30416.6960 -120.3588 -63.2266
ENERGY: 1500000 1.3409 11.2636 5.9446 0.0000 -10705.9196 1365.3700 0.0000 0.0000 1875.2254 -7446.7751 316.0798 -9322.0005 -7488.5949 302.6972 -665.7694 -554.2407 30619.9610 -227.1389 -169.6277
TCL: Running FEP window  16: Lambda1 0.7500000000000001 Lambda2 0.8000000000000002 [dLambda 0.050000000000000044]
TCL: Setting parameter firsttimestep to 0
TCL: Setting parameter alchLambda to 0.7500000000000001
Info: NONBONDED TABLE R-SQUARED SPACING: 0.0625
Info: NONBONDED TABLE SIZE: 705 POINTS
TCL: Setting parameter alchLambda2 to 0.8000000000000002
Info: NONBONDED TABLE R-SQUARED SPACING: 0.0625
Info: NONBONDED TABLE SIZE: 705 POINTS
TCL: Running for 1500000 steps
ETITLE: TS BOND ANGLE DIHED IMPRP ELECT VDW BOUNDARY MISC KINETIC TOTAL TEMP POTENTIAL TOTALAVG TEMPAVG PRESSURE GPRESSURE VOLUME PRESSAVG GPRESSAVG
ENERGY: 0 1.3409 11.2636 5.9446 0.0000 -10706.0847 1365.2657 0.0000 0.0000 1874.3615 -7447.9084 315.9342 -9322.2700 -7447.9084 315.9342 -628.7652 -541.7124 30619.9610 -628.7652 -541.7124
ENERGY: 300000 3.3836 9.5878 5.3074 0.0000 -10825.3672 1438.1416 0.0000 0.0000 1811.9686 -7556.9783 305.4175 -9368.9469 -7523.8032 304.5848 -115.6414 -34.2284 30584.5403 -129.4557 -56.0067
ENERGY: 600000 1.5975 14.3943 4.3850 0.0000 -10789.1575 1452.2223 0.0000 0.0000 1823.3043 -7493.2541 307.3282 -9316.5584 -7526.3031 304.1151 171.2713 221.0958 30589.0869 -101.7837 -31.4119
ENERGY: 900000 0.6215 11.4123 3.8700 0.0000 -10610.5763 1314.1313 0.0000 0.0000 1783.0739 -7497.4672 300.5472 -9280.5412 -7499.0796 302.8699 -1080.6514 -1010.0424 31024.9567 -219.1294 -156.8897
ENERGY: 1200000 0.7214 11.3925 5.3531 0.0000 -10829.1291 1484.3987 0.0000 0.0000 1733.8488 -7593.4147 292.2500 -9327.2634 -7509.4227 301.6579 311.1339 378.3088 30469.8239 -147.7865 -87.6402
ENERGY: 1500000 1.8259 15.9810 4.9602 0.0000 -10629.2107 1338.4363 0.0000 0.0000 1723.6742 -7544.3331 290.5350 -9268.0073 -7515.1009 300.3604 -752.0184 -677.1727 30601.2558 -106.8171 -50.7746
TCL: Running FEP window  17: Lambda1 0.8000000000000002 Lambda2 0.8500000000000002 [dLambda 0.050000000000000044]
TCL: Setting parameter firsttimestep to 0
TCL: Setting parameter alchLambda to 0.8000000000000002
Info: NONBONDED TABLE R-SQUARED SPACING: 0.0625
Info: NONBONDED TABLE SIZE: 705 POINTS
TCL: Setting parameter alchLambda2 to 0.8500000000000002
Info: NONBONDED TABLE R-SQUARED SPACING: 0.0625
Info: NONBONDED TABLE SIZE: 705 POINTS
TCL: Running for 1500000 steps
ETITLE: TS BOND ANGLE DIHED IMPRP ELECT VDW BOUNDARY MISC KINETIC TOTAL TEMP POTENTIAL TOTALAVG TEMPAVG PRESSURE GPRESSURE VOLUME PRESSAVG GPRESSAVG
ENERGY: 0 1.8259 15.9810 4.9602 0.0000 -10629.2747 1337.9118 0.0000 0.0000 1722.7818 -7545.8140 290.3846 -9268.5958 -7545.8140 290.3846 -750.1611 -666.3392 30601.2558 -750.1611 -666.3392
ENERGY: 300000 2.6922 18.2730 6.0202 0.0000 -10685.5515 1446.9894 0.0000 0.0000 1771.7572 -7439.8195 298.6397 -9211.5767 -7444.7044 300.1749 155.0269 148.9755 30852.1512 -53.0082 -28.6935
ENERGY: 600000 3.3830 10.9786 5.1155 0.0000 -10828.3192 1444.8935 0.0000 0.0000 1810.3957 -7553.5528 305.1524 -9363.9485 -7472.4658 301.0533 -110.8477 -82.4785 30245.2339 -97.3928 -63.8607
ENERGY: 900000 1.2184 13.8685 5.3174 0.0000 -10784.0619 1424.2457 0.0000 0.0000 1741.1642 -7598.2477 293.4831 -9339.4119 -7504.8701 298.8294 -524.1845 -443.6785 31073.0353 -148.1622 -100.9184
ENERGY: 1200000 2.2432 14.5141 5.8585 0.0000 -10751.6441 1436.2730 0.0000 0.0000 1867.0039 -7425.7514 314.6941 -9292.7552 -7495.5289 299.9105 233.5475 283.3680 30194.6847 -116.1499 -68.0735
ENERGY: 1500000 2.1006 14.4209 5.3609 0.0000 -10739.6886 1467.2539 0.0000 0.0000 1768.5132 -7482.0391 298.0929 -9250.5523 -7499.8390 299.8942 216.4430 231.1524 30846.5420 -108.9760 -62.2231
TCL: Running FEP window  18: Lambda1 0.8500000000000002 Lambda2 0.9000000000000002 [dLambda 0.050000000000000044]
TCL: Setting parameter firsttimestep to 0
TCL: Setting parameter alchLambda to 0.8500000000000002
Info: NONBONDED TABLE R-SQUARED SPACING: 0.0625
Info: NONBONDED TABLE SIZE: 705 POINTS
TCL: Setting parameter alchLambda2 to 0.9000000000000002
Info: NONBONDED TABLE R-SQUARED SPACING: 0.0625
Info: NONBONDED TABLE SIZE: 705 POINTS
TCL: Running for 1500000 steps
ETITLE: TS BOND ANGLE DIHED IMPRP ELECT VDW BOUNDARY MISC KINETIC TOTAL TEMP POTENTIAL TOTALAVG TEMPAVG PRESSURE GPRESSURE VOLUME PRESSAVG GPRESSAVG
ENERGY: 0 2.1006 14.4209 5.3609 0.0000 -10739.7111 1466.7785 0.0000 0.0000 1767.6367 -7483.4135 297.9451 -9251.0501 -7483.4135 297.9451 169.2516 238.7023 30846.5420 169.2516 238.7023
ENERGY: 300000 1.4971 10.6741 6.6464 0.0000 -10979.3822 1549.8578 0.0000 0.0000 1752.4720 -7658.2348 295.3890 -9410.7068 -7503.0710 301.2505 484.0797 541.4290 30576.0109 -66.0423 -12.8662
ENERGY: 600000 2.1009 14.7428 5.3742 0.0000 -10733.1953 1409.9997 0.0000 0.0000 1812.8641 -7488.1136 305.5685 -9300.9778 -7478.8436 302.6369 -304.4994 -298.2181 31050.9157 -34.9217 14.3322
ENERGY: 900000 4.9409 14.0712 4.9683 0.0000 -10685.5914 1370.2507 0.0000 0.0000 1760.1723 -7531.1880 296.6870 -9291.3603 -7497.7301 301.6874 -484.8267 -432.1538 30533.0661 -33.0270 15.6398
ENERGY: 1200000 3.7771 11.4116 5.4313 0.0000 -10719.0545 1396.9178 0.0000 0.0000 1773.6077 -7527.9089 298.9516 -9301.5166 -7510.2862 300.5699 -317.7383 -244.5234 30538.4052 -23.3102 34.0800
ENERGY: 1500000 0.6689 11.2669 4.5490 0.0000 -10729.7255 1413.6451 0.0000 0.0000 1738.0166 -7561.5789 292.9525 -9299.5956 -7508.7002 299.8492 -88.3297 -3.3101 30545.1706 -41.2233 11.7933
TCL: Running FEP window  19: Lambda1 0.9000000000000002 Lambda2 0.9500000000000003 [dLambda 0.050000000000000044]
TCL: Setting parameter firsttimestep to 0
TCL: Setting parameter alchLambda to 0.9000000000000002
Info: NONBONDED TABLE R-SQUARED SPACING: 0.0625
Info: NONBONDED TABLE SIZE: 705 POINTS
TCL: Setting parameter alchLambda2 to 0.9500000000000003
Info: NONBONDED TABLE R-SQUARED SPACING: 0.0625
Info: NONBONDED TABLE SIZE: 705 POINTS
TCL: Running for 1500000 steps
ETITLE: TS BOND ANGLE DIHED IMPRP ELECT VDW BOUNDARY MISC KINETIC TOTAL TEMP POTENTIAL TOTALAVG TEMPAVG PRESSURE GPRESSURE VOLUME PRESSAVG GPRESSAVG
ENERGY: 0 0.6689 11.2669 4.5490 0.0000 -10729.8080 1413.5966 0.0000 0.0000 1737.1227 -7562.6039 292.8018 -9299.7267 -7562.6039 292.8018 -69.6738 15.0427 30545.1706 -69.6738 15.0427
ENERGY: 300000 2.1256 14.0427 5.4062 0.0000 -10785.9500 1435.6602 0.0000 0.0000 1814.9358 -7513.7795 305.9177 -9328.7153 -7531.7905 296.9992 -417.1984 -297.0449 30969.2379 -139.3153 -46.9105
ENERGY: 600000 3.1767 9.5906 5.0628 0.0000 -10727.0004 1411.4461 0.0000 0.0000 1848.8977 -7448.8265 311.6422 -9297.7242 -7532.9912 299.7202 -74.7329 -48.2733 30642.6327 21.4330 82.5333
ENERGY: 900000 1.5551 11.4350 7.0112 0.0000 -10913.6676 1518.9561 0.0000 0.0000 1777.2561 -7597.4540 299.5666 -9374.7101 -7525.5045 300.2550 614.5909 660.9733 30325.5224 173.5641 238.2592
ENERGY: 1200000 0.1229 14.8863 4.3732 0.0000 -10683.2608 1457.2437 0.0000 0.0000 1727.7998 -7478.8349 291.2304 -9206.6347 -7520.6249 300.0678 260.1299 303.0599 30698.0434 183.6696 245.9787
ENERGY: 1500000 3.6284 12.9205 5.1073 0.0000 -10700.1443 1425.7475 0.0000 0.0000 1788.6200 -7464.1206 301.4820 -9252.7406 -7514.7521 300.1458 -340.9014 -238.0913 31699.4964 181.3134 247.1640
TCL: Running FEP window  20: Lambda1 0.9500000000000003 Lambda2 1.0    [dLambda 0.04999999999999971]
TCL: Setting parameter firsttimestep to 0
TCL: Setting parameter alchLambda to 0.9500000000000003
Info: NONBONDED TABLE R-SQUARED SPACING: 0.0625
Info: NONBONDED TABLE SIZE: 705 POINTS
TCL: Setting parameter alchLambda2 to 1.0
Info: NONBONDED TABLE R-SQUARED SPACING: 0.0625
Info: NONBONDED TABLE SIZE: 705 POINTS
TCL: Running for 1500000 steps
ETITLE: TS BOND ANGLE DIHED IMPRP ELECT VDW BOUNDARY MISC KINETIC TOTAL TEMP POTENTIAL TOTALAVG TEMPAVG PRESSURE GPRESSURE VOLUME PRESSAVG GPRESSAVG
ENERGY: 0 3.6284 12.9205 5.1073 0.0000 -10700.0993 1425.4262 0.0000 0.0000 1787.7126 -7465.3043 301.3290 -9253.0168 -7465.3043 301.3290 -307.8800 -228.6335 31699.4964 -307.8800 -228.6335
ENERGY: 300000 1.9935 15.4412 5.4245 0.0000 -10758.9494 1508.5824 0.0000 0.0000 1820.6454 -7406.8624 306.8801 -9227.5077 -7464.6765 302.2029 666.1412 764.5826 30677.3437 270.9478 349.9591
ENERGY: 600000 1.5166 12.4076 5.1007 0.0000 -10864.0146 1545.2285 0.0000 0.0000 1799.6517 -7500.1094 303.3415 -9299.7611 -7482.2504 301.1931 724.5856 763.9637 30683.3100 108.4087 181.4424
ENERGY: 900000 3.7506 10.7881 5.5230 0.0000 -10910.3678 1539.0826 0.0000 0.0000 1783.9910 -7567.2325 300.7018 -9351.2235 -7491.9224 300.6008 711.7143 759.9717 30445.3125 122.3644 192.0617
ENERGY: 1200000 5.2671 8.8204 10.1781 0.0000 -10677.6157 1385.0436 0.0000 0.0000 1775.3428 -7492.9636 299.2441 -9268.3064 -7475.1011 301.1208 -750.0809 -698.3548 31165.0915 3.3231 64.0574
ENERGY: 1500000 1.5546 12.0804 4.2845 0.0000 -10898.4199 1495.2941 0.0000 0.0000 1794.1357 -7591.0707 302.4117 -9385.2064 -7485.4203 300.5517 552.3402 525.0368 30303.2474 74.0733 126.6942
TCL: Exiting due to exit command.
