Info: SIMULATION PARAMETERS:
Info: TIMESTEP               2
Info: NUMBER OF STEPS        0
Info: STEPS PER CYCLE        10
Info: PERIODIC CELL BASIS 1  30.2351 0 0
Info: PERIODIC CELL BASIS 2  0 30.2819 0
Info: PERIODIC CELL BASIS 3  0 0 32.4359
Info: PERIODIC CELL CENTER   0 0 0
Info: WRAPPING WATERS AROUND PERIODIC BOUNDARIES ON OUTPUT.
Info: WRAPPING ALL CLUSTERS AROUND PERIODIC BOUNDARIES ON OUTPUT.
Info: FIRST LDB TIMESTEP     50
Info: LAST LDB TIMESTEP     -1
Info: HOM BACKGROUND SCALING 1
Info: PME BACKGROUND SCALING 1
Info: MIN ATOMS PER PATCH    40
Info: EMPTY PATCH LOAD       40 ATOMS
Info: VELOCITY FILE          mobley_3325209_equil.vel
Info: CENTER OF MASS MOVING INITIALLY? NO
Info: DIELECTRIC             1
Info: EXCLUDE                SCALED ONE-FOUR
Info: 1-4 ELECTROSTATICS SCALED BY 0.833333
Info: MODIFIED 1-4 VDW PARAMETERS WILL BE USED
Info: DCD FILENAME           mobley_3325209_prod.dcd
Info: DCD FREQUENCY          100000
Info: DCD FIRST STEP         100000
Info: DCD FILE WILL CONTAIN UNIT CELL DATA
Info: XST FILENAME           mobley_3325209_prod.xst
Info: XST FREQUENCY          100000
Info: NO VELOCITY DCD OUTPUT
Info: NO FORCE DCD OUTPUT
Info: OUTPUT FILENAME        mobley_3325209_prod
Info: BINARY OUTPUT FILES WILL BE USED
Info: RESTART FILENAME       mobley_3325209_prod.restart
Info: RESTART FREQUENCY      100000
Info: BINARY RESTART FILES WILL BE USED
Info: CUTOFF                 9
Info: PAIRLIST DISTANCE      11
Info: PAIRLIST SHRINK RATE   0.01
Info: PAIRLIST GROW RATE     0.01
Info: PAIRLIST TRIGGER       0.3
Info: PAIRLISTS PER CYCLE    2
Info: PAIRLISTS ENABLED
Info: MARGIN                 2
Info: HYDROGEN GROUP CUTOFF  2.5
Info: PATCH DIMENSION        15.5
Info: ENERGY OUTPUT STEPS    100000
Info: ENERGY EVALUATION STEPS    100000
Info: OUTPUT ENERGY PRECISION 4
Info: CROSSTERM ENERGY INCLUDED IN DIHEDRAL
Info: TIMING OUTPUT STEPS    1000000
Info: PRESSURE OUTPUT STEPS  100000
Info: ALCHEMICAL FEP ON
Info: FEP CURRENT LAMBDA VALUE     0
Info: FEP COMPARISON LAMBDA VALUE  0.05
Info: FEP INTRA-ALCHEMICAL NON-BONDED INTERACTIONS WILL BE RETAINED
Info: FEP INTRA-ALCHEMICAL BONDED INTERACTIONS WILL BE RETAINED
Info: FEP VDW SHIFTING COEFFICIENT 5
Info: FEP ELEC. ACTIVE FOR ANNIHILATED PARTICLES BETWEEN LAMBDA = 0 AND LAMBDA = 0.5
Info: FEP ELEC. ACTIVE FOR EXNIHILATED PARTICLES BETWEEN LAMBDA = 0.5 AND LAMBDA = 1
Info: FEP VDW ACTIVE FOR ANNIHILATED PARTICLES BETWEEN LAMBDA = 0 AND LAMBDA = 1
Info: FEP VDW ACTIVE FOR EXNIHILATED PARTICLES BETWEEN LAMBDA = 0 AND LAMBDA = 1
Info: FEP BOND ACTIVE FOR ANNIHILATED PARTICLES BETWEEN LAMBDA = 1 AND LAMBDA = 1
Info: FEP BOND ACTIVE FOR EXNIHILATED PARTICLES BETWEEN LAMBDA = 0 AND LAMBDA = 0
Info: LANGEVIN DYNAMICS ACTIVE
Info: LANGEVIN TEMPERATURE   300
Info: LANGEVIN USING BBK INTEGRATOR
Info: LANGEVIN DAMPING COEFFICIENT IS 1 INVERSE PS
Info: LANGEVIN DYNAMICS APPLIED TO HYDROGENS
Info: LANGEVIN PISTON PRESSURE CONTROL ACTIVE
Info:        TARGET PRESSURE IS 1.01325 BAR
Info:     OSCILLATION PERIOD IS 50 FS
Info:             DECAY TIME IS 25 FS
Info:     PISTON TEMPERATURE IS 300 K
Info:       PRESSURE CONTROL IS GROUP-BASED
Info:    INITIAL STRAIN RATE IS 3.3488e-05 3.3488e-05 3.3488e-05
Info:       CELL FLUCTUATION IS ISOTROPIC
Info: PARTICLE MESH EWALD (PME) ACTIVE
Info: PME TOLERANCE               1e-06
Info: PME EWALD COEFFICIENT       0.348832
Info: PME INTERPOLATION ORDER     4
Info: PME GRID DIMENSIONS         32 32 36
Info: PME MAXIMUM GRID SPACING    1
Info: PME CALCULATION WILL BE PERFORMED ON GPU
Info: FULL ELECTROSTATIC EVALUATION FREQUENCY      2
Info: USING VERLET I (r-RESPA) MTS SCHEME.
Info: C1 SPLITTING OF LONG RANGE ELECTROSTATICS
Info: PLACING ATOMS IN PATCHES BY HYDROGEN GROUPS
Info: RIGID BONDS TO HYDROGEN : ALL
Info:         ERROR TOLERANCE : 1e-08
Info:          MAX ITERATIONS : 100
Info: RIGID WATER USING SETTLE ALGORITHM
Info: RANDOM NUMBER SEED     1743988625
Info: USE HYDROGEN BONDS?    NO
Info: Using AMBER format force field!
Info: AMBER PARM FILE        mobley_3325209.prmtop
Info: COORDINATE PDB         mobley_3325209.pdb
Info: Exclusions will be read from PARM file!
Info: SCNB (VDW SCALING)     2
Info: USING ARITHMETIC MEAN TO COMBINE L-J SIGMA PARAMETERS
Info: BINARY COORDINATES     mobley_3325209_equil.coor
Info: SUMMARY OF PARAMETERS:
Info: 7 BONDS
Info: 8 ANGLES
Info:   8 HARMONIC
Info:   0 COSINE-BASED
Info: 7 DIHEDRAL
Info: 0 IMPROPER
Info: 0 CROSSTERM
Info: 0 VDW
Info: 28 VDW_PAIRS
Info: 0 NBTHOLE_PAIRS
Info: To read alchdata from file: mobley_3325209.pdb
Info: To read alchflag data from column: 5
Info: STRUCTURE SUMMARY:
Info: 2925 ATOMS
Info: 2925 BONDS
Info: 45 ANGLES
Info: 66 DIHEDRALS
Info: 0 IMPROPERS
Info: 0 CROSSTERMS
Info: 3015 EXCLUSIONS
Info: 2912 RIGID BONDS
Info: ALCH: 0 ATOMS TO DISAPPEAR IN FINAL STATE
Info: ALCH: 27 ATOMS TO APPEAR IN FINAL STATE
Info: 5863 DEGREES OF FREEDOM
Info: 979 HYDROGEN GROUPS
Info: 4 ATOMS IN LARGEST HYDROGEN GROUP
Info: 979 MIGRATION GROUPS
Info: 4 ATOMS IN LARGEST MIGRATION GROUP
Info: TOTAL MASS = 17585.7 amu
Info: TOTAL CHARGE = -0.000800032 e
Info: MASS DENSITY = 0.983327 g/cm^3
Info: ATOM DENSITY = 0.0984931 atoms/A^3
Info: ADDED 0 IMPLICIT EXCLUSIONS
Info: NONBONDED TABLE R-SQUARED SPACING: 0.0625
Info: NONBONDED TABLE SIZE: 705 POINTS
Info: REMOVING COM VELOCITY 0.0539156 0.0942401 0.0639958
Info: Use 3D box decompostion in PME FFT.
Info: Updated CUDA force table with 4096 elements.
Info: Updated CUDA LJ table with 7 x 7 elements.
Info: Found 23 unique exclusion lists needing 76 bytes
TCL: Running for 1500000 steps
ETITLE: TS BOND ANGLE DIHED IMPRP ELECT VDW BOUNDARY MISC KINETIC TOTAL TEMP POTENTIAL TOTALAVG TEMPAVG PRESSURE GPRESSURE VOLUME PRESSAVG GPRESSAVG
ENERGY: 0 1.9635 11.0530 15.9896 0.0000 -10581.1328 1445.4561 0.0000 0.0000 1693.3503 -7413.3203 290.6814 -9106.6706 -7413.3203 290.6814 317.5911 382.8775 29697.5266 317.5911 382.8775
ENERGY: 300000 5.5636 12.3953 14.8466 0.0000 -10658.1083 1444.4201 0.0000 0.0000 1741.6980 -7439.1846 298.9808 -9180.8826 -7404.6812 297.5440 -131.8724 -94.9515 29774.0596 273.1633 350.7827
ENERGY: 600000 4.6960 11.0697 17.5773 0.0000 -10539.5211 1419.2486 0.0000 0.0000 1759.6407 -7327.2889 302.0609 -9086.9296 -7392.4786 299.5103 194.9300 266.5976 29570.7526 232.9724 319.7273
ENERGY: 900000 6.4043 7.8300 15.8165 0.0000 -10655.8771 1453.1915 0.0000 0.0000 1804.2899 -7368.3450 309.7254 -9172.6349 -7387.4519 299.9491 -27.4842 41.0292 29968.3641 269.6870 356.7144
ENERGY: 1200000 3.5200 10.7775 16.4676 0.0000 -10508.5809 1330.2473 0.0000 0.0000 1690.2118 -7457.3566 290.1427 -9147.5684 -7391.6618 299.8295 -1146.6263 -1104.2670 30656.4538 150.6268 223.1941
ENERGY: 1500000 4.8896 11.3691 19.4355 0.0000 -10650.4671 1479.5075 0.0000 0.0000 1706.5042 -7428.7612 292.9394 -9135.2654 -7388.5424 299.0552 490.4622 554.5579 29618.2554 151.0128 225.0386
TCL: Running FEP window   2: Lambda1 0.05   Lambda2 0.1    [dLambda 0.05  ]
TCL: Setting parameter firsttimestep to 0
TCL: Setting parameter alchLambda to 0.05
Info: NONBONDED TABLE R-SQUARED SPACING: 0.0625
Info: NONBONDED TABLE SIZE: 705 POINTS
TCL: Setting parameter alchLambda2 to 0.1
Info: NONBONDED TABLE R-SQUARED SPACING: 0.0625
Info: NONBONDED TABLE SIZE: 705 POINTS
TCL: Running for 1500000 steps
ETITLE: TS BOND ANGLE DIHED IMPRP ELECT VDW BOUNDARY MISC KINETIC TOTAL TEMP POTENTIAL TOTALAVG TEMPAVG PRESSURE GPRESSURE VOLUME PRESSAVG GPRESSAVG
ENERGY: 0 4.8896 11.3691 19.4355 0.0000 -10650.4678 1483.5452 0.0000 0.0000 1705.6085 -7425.6200 292.7857 -9131.2285 -7425.6200 292.7857 476.6912 567.6549 29618.2554 476.6912 567.6549
ENERGY: 300000 2.2947 10.1280 18.5247 0.0000 -10617.2171 1391.2834 0.0000 0.0000 1741.6704 -7453.3158 298.9761 -9194.9862 -7412.3314 298.1534 -372.1135 -320.5241 29710.5412 202.7781 240.1542
ENERGY: 600000 3.2560 10.0204 16.4791 0.0000 -10554.3749 1401.2685 0.0000 0.0000 1758.9049 -7364.4459 301.9346 -9123.3509 -7413.7295 298.5487 42.3158 134.3763 29667.5920 206.4021 252.4092
ENERGY: 900000 3.6367 10.0338 16.8390 0.0000 -10660.5126 1416.5348 0.0000 0.0000 1720.5873 -7492.8810 295.3570 -9213.4684 -7403.4380 298.8595 -136.8361 -93.0039 29591.6942 160.7045 202.8457
ENERGY: 1200000 3.7252 9.9234 17.8501 0.0000 -10643.4243 1490.3545 0.0000 0.0000 1672.6672 -7448.9040 287.1310 -9121.5711 -7400.1800 298.1760 472.5231 559.8017 29652.2888 161.0983 210.2848
ENERGY: 1500000 4.5046 8.8983 16.2590 0.0000 -10650.4630 1472.1334 0.0000 0.0000 1777.3689 -7371.2988 305.1041 -9148.6677 -7388.9997 298.5783 269.3921 346.4082 29665.2700 73.0796 119.9261
TCL: Running FEP window   3: Lambda1 0.1    Lambda2 0.15000000000000002 [dLambda 0.05000000000000002]
TCL: Setting parameter firsttimestep to 0
TCL: Setting parameter alchLambda to 0.1
Info: NONBONDED TABLE R-SQUARED SPACING: 0.0625
Info: NONBONDED TABLE SIZE: 705 POINTS
TCL: Setting parameter alchLambda2 to 0.15000000000000002
Info: NONBONDED TABLE R-SQUARED SPACING: 0.0625
Info: NONBONDED TABLE SIZE: 705 POINTS
TCL: Running for 1500000 steps
ETITLE: TS BOND ANGLE DIHED IMPRP ELECT VDW BOUNDARY MISC KINETIC TOTAL TEMP POTENTIAL TOTALAVG TEMPAVG PRESSURE GPRESSURE VOLUME PRESSAVG GPRESSAVG
ENERGY: 0 4.5046 8.8983 16.2590 0.0000 -10650.4638 1474.8814 0.0000 0.0000 1776.5016 -7369.4188 304.9552 -9145.9204 -7369.4188 304.9552 272.7796 359.0765 29665.2700 272.7796 359.0765
ENERGY: 300000 4.0252 11.6057 15.7478 0.0000 -10670.5114 1523.2081 0.0000 0.0000 1797.8821 -7318.0424 308.6254 -9115.9246 -7327.9554 304.6846 767.4264 840.0484 29921.9708 88.4659 163.7038
ENERGY: 600000 7.4936 10.5784 16.0017 0.0000 -10680.1589 1499.9646 0.0000 0.0000 1768.5536 -7377.5670 303.5909 -9146.1206 -7334.7957 304.5128 460.2285 494.7500 29969.6168 198.5863 270.2308
ENERGY: 900000 2.8131 12.1877 14.6515 0.0000 -10511.1143 1354.2083 0.0000 0.0000 1731.7121 -7395.5417 297.2666 -9127.2538 -7361.8328 302.3136 -514.8018 -475.0993 29738.7046 120.2857 183.5213
ENERGY: 1200000 4.8847 10.6657 16.0931 0.0000 -10573.5548 1464.8246 0.0000 0.0000 1721.7405 -7355.3463 295.5549 -9077.0868 -7357.8929 301.5057 358.3480 448.6337 29963.5966 97.2275 151.9625
ENERGY: 1500000 5.5681 11.6550 17.0596 0.0000 -10618.2161 1470.5709 0.0000 0.0000 1768.1255 -7345.2369 303.5174 -9113.3624 -7352.0869 301.8757 652.1966 693.7989 29673.4809 167.8397 221.9086
TCL: Running FEP window   4: Lambda1 0.15000000000000002 Lambda2 0.2    [dLambda 0.04999999999999999]
TCL: Setting parameter firsttimestep to 0
TCL: Setting parameter alchLambda to 0.15000000000000002
Info: NONBONDED TABLE R-SQUARED SPACING: 0.0625
Info: NONBONDED TABLE SIZE: 705 POINTS
TCL: Setting parameter alchLambda2 to 0.2
Info: NONBONDED TABLE R-SQUARED SPACING: 0.0625
Info: NONBONDED TABLE SIZE: 705 POINTS
TCL: Running for 1500000 steps
ETITLE: TS BOND ANGLE DIHED IMPRP ELECT VDW BOUNDARY MISC KINETIC TOTAL TEMP POTENTIAL TOTALAVG TEMPAVG PRESSURE GPRESSURE VOLUME PRESSAVG GPRESSAVG
ENERGY: 0 5.5681 11.6550 17.0596 0.0000 -10618.2166 1469.8777 0.0000 0.0000 1767.2415 -7346.8147 303.3656 -9114.0562 -7346.8147 303.3656 614.5795 694.7556 29673.4809 614.5795 694.7556
ENERGY: 300000 6.3997 15.2595 16.9970 0.0000 -10518.0315 1368.9125 0.0000 0.0000 1737.9149 -7372.5480 298.3314 -9110.4629 -7389.8638 298.6248 -489.9669 -425.9883 29844.8030 76.5534 130.8400
ENERGY: 600000 2.1947 11.8500 16.9644 0.0000 -10618.9022 1427.7634 0.0000 0.0000 1733.3640 -7426.7657 297.5502 -9160.1297 -7387.4510 299.4568 10.7490 55.3429 30061.0284 83.4846 138.1103
ENERGY: 900000 7.9962 10.6165 14.7108 0.0000 -10669.8432 1518.3922 0.0000 0.0000 1691.4178 -7426.7098 290.3497 -9118.1276 -7372.5935 300.0971 572.4161 663.1131 29564.2469 60.8877 120.3741
ENERGY: 1200000 4.5876 10.3975 17.8033 0.0000 -10554.7114 1359.5539 0.0000 0.0000 1742.5005 -7419.8686 299.1186 -9162.3691 -7380.8081 298.9111 -736.7089 -660.7013 29755.2407 106.1704 164.3072
ENERGY: 1500000 6.5658 15.6415 16.3253 0.0000 -10513.7996 1351.4560 0.0000 0.0000 1756.3129 -7367.4981 301.4896 -9123.8110 -7375.3424 300.1143 -1010.1764 -992.5601 30239.5740 13.5822 72.8791
TCL: Running FEP window   5: Lambda1 0.2    Lambda2 0.25   [dLambda 0.04999999999999999]
TCL: Setting parameter firsttimestep to 0
TCL: Setting parameter alchLambda to 0.2
Info: NONBONDED TABLE R-SQUARED SPACING: 0.0625
Info: NONBONDED TABLE SIZE: 705 POINTS
TCL: Setting parameter alchLambda2 to 0.25
Info: NONBONDED TABLE R-SQUARED SPACING: 0.0625
Info: NONBONDED TABLE SIZE: 705 POINTS
TCL: Running for 1500000 steps
ETITLE: TS BOND ANGLE DIHED IMPRP ELECT VDW BOUNDARY MISC KINETIC TOTAL TEMP POTENTIAL TOTALAVG TEMPAVG PRESSURE GPRESSURE VOLUME PRESSAVG GPRESSAVG
ENERGY: 0 6.5658 15.6415 16.3253 0.0000 -10513.7986 1352.7500 0.0000 0.0000 1755.4652 -7367.0508 301.3441 -9122.5160 -7367.0508 301.3441 -1060.9493 -980.9795 30239.5740 -1060.9493 -980.9795
ENERGY: 300000 6.2095 12.2336 15.4836 0.0000 -10563.7178 1438.0195 0.0000 0.0000 1702.6545 -7389.1170 292.2786 -9091.7715 -7409.4145 296.8662 -3.1847 76.4079 30216.4838 -14.3504 69.0399
ENERGY: 600000 3.9386 7.1082 15.5910 0.0000 -10668.7741 1482.8977 0.0000 0.0000 1721.5046 -7437.7340 295.5144 -9159.2386 -7389.1460 297.7414 266.4434 328.6407 30071.6361 32.6181 90.4469
ENERGY: 900000 4.1260 10.2091 17.8724 0.0000 -10533.9734 1340.2421 0.0000 0.0000 1751.2792 -7410.2447 300.6255 -9161.5239 -7389.9620 298.8253 -740.9960 -699.1788 29976.7400 -59.5859 -2.5518
ENERGY: 1200000 2.5785 12.1384 15.5236 0.0000 -10589.1229 1437.9926 0.0000 0.0000 1789.1084 -7331.7814 307.1193 -9120.8899 -7377.6001 300.8673 -53.5914 7.2988 30052.8124 -78.3994 -18.0503
ENERGY: 1500000 3.5637 8.6622 15.7023 0.0000 -10561.7609 1447.4761 0.0000 0.0000 1773.2986 -7313.0579 304.4054 -9086.3565 -7366.2601 301.6416 199.7110 259.3015 30114.3370 -76.1106 -15.5365
TCL: Running FEP window   6: Lambda1 0.25   Lambda2 0.3    [dLambda 0.04999999999999999]
TCL: Setting parameter firsttimestep to 0
TCL: Setting parameter alchLambda to 0.25
Info: NONBONDED TABLE R-SQUARED SPACING: 0.0625
Info: NONBONDED TABLE SIZE: 705 POINTS
TCL: Setting parameter alchLambda2 to 0.3
Info: NONBONDED TABLE R-SQUARED SPACING: 0.0625
Info: NONBONDED TABLE SIZE: 705 POINTS
TCL: Running for 1500000 steps
ETITLE: TS BOND ANGLE DIHED IMPRP ELECT VDW BOUNDARY MISC KINETIC TOTAL TEMP POTENTIAL TOTALAVG TEMPAVG PRESSURE GPRESSURE VOLUME PRESSAVG GPRESSAVG
ENERGY: 0 3.5637 8.6622 15.7023 0.0000 -10561.7612 1448.5815 0.0000 0.0000 1772.4137 -7312.8377 304.2535 -9085.2515 -7312.8377 304.2535 185.5704 269.0211 30114.3370 185.5704 269.0211
ENERGY: 300000 8.6092 12.4008 19.4804 0.0000 -10537.6681 1389.7593 0.0000 0.0000 1756.6900 -7350.7285 301.5544 -9107.4185 -7351.2744 300.5161 -562.0373 -416.4944 29999.1031 -261.6619 -183.2227
ENERGY: 600000 2.6605 8.6511 15.7871 0.0000 -10690.8965 1485.9164 0.0000 0.0000 1766.7297 -7411.1517 303.2778 -9177.8814 -7365.7414 300.7427 372.2250 430.7345 29606.0564 -277.8152 -210.4171
ENERGY: 900000 1.8717 16.0665 16.0828 0.0000 -10733.5803 1522.9490 0.0000 0.0000 1711.2180 -7465.3924 293.7486 -9176.6103 -7379.2249 300.5400 899.6063 952.2857 29614.4806 -197.5866 -133.5533
ENERGY: 1200000 4.9785 14.9377 15.9170 0.0000 -10634.5961 1465.8902 0.0000 0.0000 1661.8965 -7470.9761 285.2821 -9132.8726 -7376.0427 299.5705 -69.7239 -64.8512 29982.5841 -158.3979 -97.7669
ENERGY: 1500000 9.4499 14.3915 16.1230 0.0000 -10527.2910 1454.6966 0.0000 0.0000 1737.5284 -7295.1016 298.2651 -9032.6300 -7370.4442 299.2262 412.8194 500.2557 29899.1718 -123.3254 -63.8517
TCL: Running FEP window   7: Lambda1 0.3    Lambda2 0.35   [dLambda 0.04999999999999999]
TCL: Setting parameter firsttimestep to 0
TCL: Setting parameter alchLambda to 0.3
Info: NONBONDED TABLE R-SQUARED SPACING: 0.0625
Info: NONBONDED TABLE SIZE: 705 POINTS
TCL: Setting parameter alchLambda2 to 0.35
Info: NONBONDED TABLE R-SQUARED SPACING: 0.0625
Info: NONBONDED TABLE SIZE: 705 POINTS
TCL: Running for 1500000 steps
ETITLE: TS BOND ANGLE DIHED IMPRP ELECT VDW BOUNDARY MISC KINETIC TOTAL TEMP POTENTIAL TOTALAVG TEMPAVG PRESSURE GPRESSURE VOLUME PRESSAVG GPRESSAVG
ENERGY: 0 9.4498 14.3915 16.1230 0.0000 -10527.2921 1455.8536 0.0000 0.0000 1736.6501 -7294.8240 298.1143 -9031.4741 -7294.8240 298.1143 436.3819 515.7377 29899.1718 436.3819 515.7377
ENERGY: 300000 6.4892 11.9401 15.2295 0.0000 -10684.5295 1433.9716 0.0000 0.0000 1757.3002 -7459.5989 301.6591 -9216.8991 -7426.7315 300.7840 -554.6535 -469.1678 30123.4948 -11.0142 60.7541
ENERGY: 600000 5.5766 10.0718 14.3461 0.0000 -10634.2104 1505.8088 0.0000 0.0000 1716.9842 -7381.4230 294.7384 -9098.4072 -7399.7668 298.9569 423.9417 470.0063 30092.1433 22.9920 79.6475
ENERGY: 900000 2.9618 10.2602 17.3531 0.0000 -10680.6249 1441.6789 0.0000 0.0000 1757.0613 -7451.3096 301.6181 -9208.3708 -7399.1145 299.3227 -61.2096 -9.3183 29728.6760 26.4004 78.7743
ENERGY: 1200000 4.9729 9.8482 15.6060 0.0000 -10598.1613 1455.8469 0.0000 0.0000 1770.2567 -7341.6307 303.8832 -9111.8874 -7383.4153 300.0230 328.2647 426.0950 29658.4429 -6.1583 54.8750
ENERGY: 1500000 2.5259 11.2200 17.3154 0.0000 -10518.3815 1376.9100 0.0000 0.0000 1716.9249 -7393.4853 294.7283 -9110.4102 -7383.8791 299.9184 -328.0508 -280.6313 29923.3159 -29.1582 34.5738
TCL: Running FEP window   8: Lambda1 0.35   Lambda2 0.39999999999999997 [dLambda 0.04999999999999999]
TCL: Setting parameter firsttimestep to 0
TCL: Setting parameter alchLambda to 0.35
Info: NONBONDED TABLE R-SQUARED SPACING: 0.0625
Info: NONBONDED TABLE SIZE: 705 POINTS
TCL: Setting parameter alchLambda2 to 0.39999999999999997
Info: NONBONDED TABLE R-SQUARED SPACING: 0.0625
Info: NONBONDED TABLE SIZE: 705 POINTS
TCL: Running for 1500000 steps
ETITLE: TS BOND ANGLE DIHED IMPRP ELECT VDW BOUNDARY MISC KINETIC TOTAL TEMP POTENTIAL TOTALAVG TEMPAVG PRESSURE GPRESSURE VOLUME PRESSAVG GPRESSAVG
ENERGY: 0 2.5259 11.2200 17.3154 0.0000 -10518.3815 1377.0119 0.0000 0.0000 1716.0751 -7394.2332 294.5824 -9110.3083 -7394.2332 294.5824 -353.3773 -274.4304 29923.3159 -353.3773 -274.4304
ENERGY: 300000 2.2876 14.6470 15.3941 0.0000 -10503.7138 1355.9161 0.0000 0.0000 1729.0333 -7386.4358 296.8068 -9115.4691 -7345.6898 298.3384 -334.9723 -378.4334 29839.1843 -374.3616 -327.7971
ENERGY: 600000 2.4257 12.7326 16.4212 0.0000 -10451.1060 1408.0734 0.0000 0.0000 1790.6225 -7220.8306 307.3792 -9011.4531 -7320.6762 301.0102 64.7036 168.4899 30393.9000 -220.4940 -166.8358
ENERGY: 900000 3.1970 13.5120 16.3571 0.0000 -10434.4894 1354.5700 0.0000 0.0000 1737.0767 -7309.7767 298.1875 -9046.8534 -7311.8077 301.5210 -371.3889 -283.0264 29876.6322 -213.7651 -146.7467
ENERGY: 1200000 4.7874 6.9540 16.0069 0.0000 -10684.1305 1459.8944 0.0000 0.0000 1801.7459 -7394.7418 309.2887 -9196.4878 -7321.6168 303.0739 14.1571 87.7223 29798.4946 -144.1533 -81.8131
ENERGY: 1500000 3.2812 9.5858 16.3954 0.0000 -10556.3584 1415.7230 0.0000 0.0000 1737.3850 -7373.9880 298.2405 -9111.3730 -7331.8697 302.0094 -303.9314 -300.8322 30593.3950 -138.0839 -77.4487
TCL: Running FEP window   9: Lambda1 0.39999999999999997 Lambda2 0.44999999999999996 [dLambda 0.04999999999999999]
TCL: Setting parameter firsttimestep to 0
TCL: Setting parameter alchLambda to 0.39999999999999997
Info: NONBONDED TABLE R-SQUARED SPACING: 0.0625
Info: NONBONDED TABLE SIZE: 705 POINTS
TCL: Setting parameter alchLambda2 to 0.44999999999999996
Info: NONBONDED TABLE R-SQUARED SPACING: 0.0625
Info: NONBONDED TABLE SIZE: 705 POINTS
TCL: Running for 1500000 steps
ETITLE: TS BOND ANGLE DIHED IMPRP ELECT VDW BOUNDARY MISC KINETIC TOTAL TEMP POTENTIAL TOTALAVG TEMPAVG PRESSURE GPRESSURE VOLUME PRESSAVG GPRESSAVG
ENERGY: 0 3.2812 9.5858 16.3954 0.0000 -10556.3590 1415.7380 0.0000 0.0000 1736.5246 -7374.8341 298.0928 -9111.3586 -7374.8341 298.0928 -365.9154 -292.3451 30593.3950 -365.9154 -292.3451
ENERGY: 300000 4.3498 12.7436 14.4256 0.0000 -10474.6571 1369.7782 0.0000 0.0000 1757.6573 -7315.7026 301.7204 -9073.3599 -7380.1541 298.5144 -504.7111 -473.9286 30491.3729 -355.2255 -302.9498
ENERGY: 600000 4.5722 13.0514 13.1696 0.0000 -10621.5220 1455.5914 0.0000 0.0000 1684.5639 -7450.5734 289.1732 -9135.1373 -7380.2859 296.7032 -49.7462 -3.8368 30428.8472 -236.1840 -185.7233
ENERGY: 900000 6.5748 14.6894 16.8489 0.0000 -10395.4439 1284.0772 0.0000 0.0000 1757.6986 -7315.5550 301.7275 -9073.2536 -7368.9889 297.9353 -1461.0825 -1380.9705 30652.0688 -339.1523 -282.2722
ENERGY: 1200000 3.2102 9.3044 17.0516 0.0000 -10604.7949 1412.5352 0.0000 0.0000 1766.2181 -7396.4754 303.1900 -9162.6934 -7380.8053 298.9771 -109.6362 6.6182 29915.0534 -324.6125 -263.9213
ENERGY: 1500000 4.6585 14.2707 17.1267 0.0000 -10565.4217 1332.1942 0.0000 0.0000 1752.1265 -7445.0453 300.7710 -9197.1717 -7387.7652 298.5972 -811.5233 -708.7378 29658.8528 -343.4126 -284.7368
TCL: Running FEP window  10: Lambda1 0.44999999999999996 Lambda2 0.49999999999999994 [dLambda 0.04999999999999999]
TCL: Setting parameter firsttimestep to 0
TCL: Setting parameter alchLambda to 0.44999999999999996
Info: NONBONDED TABLE R-SQUARED SPACING: 0.0625
Info: NONBONDED TABLE SIZE: 705 POINTS
TCL: Setting parameter alchLambda2 to 0.49999999999999994
Info: NONBONDED TABLE R-SQUARED SPACING: 0.0625
Info: NONBONDED TABLE SIZE: 705 POINTS
TCL: Running for 1500000 steps
ETITLE: TS BOND ANGLE DIHED IMPRP ELECT VDW BOUNDARY MISC KINETIC TOTAL TEMP POTENTIAL TOTALAVG TEMPAVG PRESSURE GPRESSURE VOLUME PRESSAVG GPRESSAVG
ENERGY: 0 4.6585 14.2707 17.1267 0.0000 -10565.4221 1332.2382 0.0000 0.0000 1751.2531 -7445.8750 300.6211 -9197.1281 -7445.8750 300.6211 -783.3189 -700.8954 29658.8528 -783.3189 -700.8954
ENERGY: 300000 6.9941 9.9088 13.4232 0.0000 -10569.3700 1409.5845 0.0000 0.0000 1739.3464 -7390.1130 298.5772 -9129.4594 -7425.4972 294.4704 -276.4403 -231.2570 30235.4014 -248.0705 -188.1510
ENERGY: 600000 3.5117 9.8902 16.0554 0.0000 -10453.5560 1382.9990 0.0000 0.0000 1735.5283 -7305.5714 297.9217 -9041.0997 -7383.4081 297.8511 -487.3681 -448.0663 30617.4742 -273.7386 -209.3359
ENERGY: 900000 3.2560 9.5919 16.4266 0.0000 -10613.7974 1466.2377 0.0000 0.0000 1740.5551 -7377.7301 298.7846 -9118.2852 -7376.8849 297.9406 314.6998 434.3723 29858.5931 -153.9395 -80.0365
ENERGY: 1200000 5.5363 13.5839 15.8321 0.0000 -10425.8477 1297.5625 0.0000 0.0000 1698.8104 -7394.5225 291.6187 -9093.3329 -7368.2441 299.0566 -1097.8323 -1068.1393 30127.6132 -245.1490 -183.1447
ENERGY: 1500000 4.4820 10.3593 16.9965 0.0000 -10754.8869 1568.2073 0.0000 0.0000 1769.5914 -7385.2504 303.7690 -9154.8418 -7365.4356 300.0943 1347.8543 1442.4235 29471.8636 -142.6026 -80.0663
TCL: Running FEP window  11: Lambda1 0.49999999999999994 Lambda2 0.5499999999999999 [dLambda 0.04999999999999999]
TCL: Setting parameter firsttimestep to 0
TCL: Setting parameter alchLambda to 0.49999999999999994
Info: NONBONDED TABLE R-SQUARED SPACING: 0.0625
Info: NONBONDED TABLE SIZE: 705 POINTS
TCL: Setting parameter alchLambda2 to 0.5499999999999999
Info: NONBONDED TABLE R-SQUARED SPACING: 0.0625
Info: NONBONDED TABLE SIZE: 705 POINTS
TCL: Running for 1500000 steps
ETITLE: TS BOND ANGLE DIHED IMPRP ELECT VDW BOUNDARY MISC KINETIC TOTAL TEMP POTENTIAL TOTALAVG TEMPAVG PRESSURE GPRESSURE VOLUME PRESSAVG GPRESSAVG
ENERGY: 0 4.4820 10.3593 16.9965 0.0000 -10754.8859 1569.0538 0.0000 0.0000 1768.7169 -7385.2774 303.6189 -9153.9943 -7385.2774 303.6189 1368.0542 1458.9669 29471.8636 1368.0542 1458.9669
ENERGY: 300000 4.6352 5.8347 14.2080 0.0000 -10621.2302 1445.2682 0.0000 0.0000 1761.0356 -7390.2486 302.3003 -9151.2841 -7361.1609 300.8300 172.1343 199.7635 29860.8595 642.5404 721.6181
ENERGY: 600000 3.3246 14.0650 15.7512 0.0000 -10523.0875 1465.8189 0.0000 0.0000 1731.4180 -7292.7098 297.2162 -9024.1278 -7337.1973 301.0244 524.9562 519.6372 30167.1737 513.0237 575.0416
ENERGY: 900000 3.5721 11.9026 18.0622 0.0000 -10572.2699 1396.0166 0.0000 0.0000 1779.4381 -7363.2782 305.4593 -9142.7164 -7348.3671 301.0154 -244.9140 -218.5519 30127.2515 275.4786 328.3230
ENERGY: 1200000 4.0901 11.9871 16.6331 0.0000 -10573.3119 1444.3194 0.0000 0.0000 1782.1969 -7314.0852 305.9329 -9096.2822 -7350.9873 301.7588 128.8423 211.7388 30137.9626 218.5460 274.1922
ENERGY: 1500000 5.2253 11.3397 20.3836 0.0000 -10430.3302 1336.4748 0.0000 0.0000 1761.2898 -7295.6169 302.3440 -9056.9067 -7355.4227 301.2355 -694.3779 -554.7389 30225.1642 170.9992 233.9337
TCL: Running FEP window  12: Lambda1 0.5499999999999999 Lambda2 0.6    [dLambda 0.050000000000000044]
TCL: Setting parameter firsttimestep to 0
TCL: Setting parameter alchLambda to 0.5499999999999999
Info: NONBONDED TABLE R-SQUARED SPACING: 0.0625
Info: NONBONDED TABLE SIZE: 705 POINTS
TCL: Setting parameter alchLambda2 to 0.6
Info: NONBONDED TABLE R-SQUARED SPACING: 0.0625
Info: NONBONDED TABLE SIZE: 705 POINTS
TCL: Running for 1500000 steps
ETITLE: TS BOND ANGLE DIHED IMPRP ELECT VDW BOUNDARY MISC KINETIC TOTAL TEMP POTENTIAL TOTALAVG TEMPAVG PRESSURE GPRESSURE VOLUME PRESSAVG GPRESSAVG
ENERGY: 0 5.2253 11.3397 20.3836 0.0000 -10430.2838 1336.1032 0.0000 0.0000 1760.4214 -7296.8104 302.1949 -9057.2319 -7296.8104 302.1949 -638.1241 -547.7851 30225.1642 -638.1241 -547.7851
ENERGY: 300000 3.6805 8.6918 16.8875 0.0000 -10576.1272 1357.0656 0.0000 0.0000 1699.4363 -7490.3655 291.7262 -9189.8018 -7341.0236 300.2330 -632.8935 -581.1108 29882.1074 -287.6279 -186.0870
ENERGY: 600000 5.0910 9.8026 15.2112 0.0000 -10624.3575 1437.9029 0.0000 0.0000 1740.8437 -7415.5060 298.8342 -9156.3497 -7350.7926 300.6612 -57.2094 -12.0700 30062.6856 -163.2803 -92.7718
ENERGY: 900000 2.5317 11.9611 15.8841 0.0000 -10624.4048 1448.2728 0.0000 0.0000 1773.9810 -7371.7741 304.5225 -9145.7551 -7367.1070 301.3229 227.7853 260.3452 29839.9607 -8.5315 55.9285
ENERGY: 1200000 4.4438 11.2656 17.2675 0.0000 -10646.6206 1515.1337 0.0000 0.0000 1796.8186 -7301.6914 308.4429 -9098.5100 -7346.3424 301.7984 683.3867 749.6393 30047.3036 -0.8186 71.5457
ENERGY: 1500000 2.5227 11.1831 14.9377 0.0000 -10556.4057 1389.1631 0.0000 0.0000 1742.5834 -7396.0157 299.1328 -9138.5991 -7353.0657 301.5230 -421.9738 -344.2302 30109.8848 -87.9099 -20.4796
TCL: Running FEP window  13: Lambda1 0.6    Lambda2 0.65   [dLambda 0.050000000000000044]
TCL: Setting parameter firsttimestep to 0
TCL: Setting parameter alchLambda to 0.6
Info: NONBONDED TABLE R-SQUARED SPACING: 0.0625
Info: NONBONDED TABLE SIZE: 705 POINTS
TCL: Setting parameter alchLambda2 to 0.65
Info: NONBONDED TABLE R-SQUARED SPACING: 0.0625
Info: NONBONDED TABLE SIZE: 705 POINTS
TCL: Running for 1500000 steps
ETITLE: TS BOND ANGLE DIHED IMPRP ELECT VDW BOUNDARY MISC KINETIC TOTAL TEMP POTENTIAL TOTALAVG TEMPAVG PRESSURE GPRESSURE VOLUME PRESSAVG GPRESSAVG
ENERGY: 0 2.5227 11.1831 14.9377 0.0000 -10556.3764 1389.6570 0.0000 0.0000 1741.7354 -7396.3405 298.9873 -9138.0759 -7396.3405 298.9873 -408.4595 -326.1995 30109.8848 -408.4595 -326.1995
ENERGY: 300000 3.2090 14.5044 19.9904 0.0000 -10519.5103 1415.5037 0.0000 0.0000 1714.5233 -7351.7795 294.3160 -9066.3028 -7357.4362 299.5236 357.1301 438.2111 29895.8627 151.7220 228.6593
ENERGY: 600000 5.4747 14.6852 16.4004 0.0000 -10575.6814 1416.2843 0.0000 0.0000 1754.1448 -7368.6920 301.1174 -9122.8368 -7362.1034 300.0106 -283.8322 -193.8632 30212.7803 -35.0735 39.5064
ENERGY: 900000 6.4851 10.8959 16.7586 0.0000 -10584.3532 1422.3573 0.0000 0.0000 1712.5674 -7415.2890 293.9803 -9127.8564 -7359.8680 300.3700 264.6542 276.9651 29711.7759 127.8606 199.0880
ENERGY: 1200000 9.2324 10.1341 19.3608 0.0000 -10462.2080 1320.4464 0.0000 0.0000 1713.2969 -7389.7374 294.1055 -9103.0343 -7364.9689 300.1868 -918.3830 -788.4654 30246.1154 36.8402 107.2127
ENERGY: 1500000 3.5295 8.9835 14.0608 0.0000 -10541.2998 1445.6264 0.0000 0.0000 1731.4635 -7337.6361 297.2240 -9069.0996 -7364.6884 300.2334 277.8145 290.7376 30058.0735 85.8106 159.8951
TCL: Running FEP window  14: Lambda1 0.65   Lambda2 0.7000000000000001 [dLambda 0.050000000000000044]
TCL: Setting parameter firsttimestep to 0
TCL: Setting parameter alchLambda to 0.65
Info: NONBONDED TABLE R-SQUARED SPACING: 0.0625
Info: NONBONDED TABLE SIZE: 705 POINTS
TCL: Setting parameter alchLambda2 to 0.7000000000000001
Info: NONBONDED TABLE R-SQUARED SPACING: 0.0625
Info: NONBONDED TABLE SIZE: 705 POINTS
TCL: Running for 1500000 steps
ETITLE: TS BOND ANGLE DIHED IMPRP ELECT VDW BOUNDARY MISC KINETIC TOTAL TEMP POTENTIAL TOTALAVG TEMPAVG PRESSURE GPRESSURE VOLUME PRESSAVG GPRESSAVG
ENERGY: 0 3.5295 8.9835 14.0608 0.0000 -10542.0249 1445.9864 0.0000 0.0000 1730.5835 -7338.8812 297.0729 -9069.4647 -7338.8812 297.0729 224.4873 306.1397 30058.0735 224.4873 306.1397
ENERGY: 300000 5.8964 9.9860 17.0725 0.0000 -10620.8012 1481.4685 0.0000 0.0000 1817.0319 -7289.3460 311.9127 -9106.3779 -7341.4277 302.8798 386.3310 455.8720 30035.9026 295.6219 380.2785
ENERGY: 600000 6.6110 11.5546 17.0287 0.0000 -10489.7571 1386.1442 0.0000 0.0000 1711.1101 -7357.3084 293.7301 -9068.4185 -7369.3492 300.4195 -443.4462 -454.2969 30738.1529 -33.8780 29.2345
ENERGY: 900000 4.7499 11.6435 15.5620 0.0000 -10544.6009 1387.5515 0.0000 0.0000 1744.1232 -7380.9707 299.3971 -9125.0939 -7363.8110 300.5235 -406.7621 -360.5537 30472.7077 -18.7398 30.5291
ENERGY: 1200000 4.4789 10.2694 14.5254 0.0000 -10538.3135 1437.2786 0.0000 0.0000 1771.9165 -7299.8447 304.1682 -9071.7612 -7360.6556 300.0206 192.1209 270.1000 30201.1712 70.1554 123.2158
ENERGY: 1500000 10.6962 10.9932 14.8858 0.0000 -10788.2270 1506.2014 0.0000 0.0000 1756.3531 -7489.0973 301.4965 -9245.4504 -7369.7551 299.1725 779.7939 755.5640 29550.1773 98.1300 154.8785
TCL: Running FEP window  15: Lambda1 0.7000000000000001 Lambda2 0.7500000000000001 [dLambda 0.050000000000000044]
TCL: Setting parameter firsttimestep to 0
TCL: Setting parameter alchLambda to 0.7000000000000001
Info: NONBONDED TABLE R-SQUARED SPACING: 0.0625
Info: NONBONDED TABLE SIZE: 705 POINTS
TCL: Setting parameter alchLambda2 to 0.7500000000000001
Info: NONBONDED TABLE R-SQUARED SPACING: 0.0625
Info: NONBONDED TABLE SIZE: 705 POINTS
TCL: Running for 1500000 steps
ETITLE: TS BOND ANGLE DIHED IMPRP ELECT VDW BOUNDARY MISC KINETIC TOTAL TEMP POTENTIAL TOTALAVG TEMPAVG PRESSURE GPRESSURE VOLUME PRESSAVG GPRESSAVG
ENERGY: 0 10.6962 10.9932 14.8858 0.0000 -10788.7773 1506.4439 0.0000 0.0000 1755.4555 -7490.3027 301.3424 -9245.7582 -7490.3027 301.3424 702.3284 769.8565 29550.1773 702.3284 769.8565
ENERGY: 300000 3.4631 11.7341 17.6822 0.0000 -10659.4304 1491.3488 0.0000 0.0000 1735.5249 -7399.6774 297.9212 -9135.2023 -7427.7633 302.0834 555.1501 651.7275 29941.5366 305.9608 392.2839
ENERGY: 600000 3.3112 7.7736 16.2184 0.0000 -10492.4595 1412.3556 0.0000 0.0000 1755.7757 -7297.0250 301.3974 -9052.8006 -7378.6369 302.6054 -29.9209 86.9521 30270.8355 97.5514 178.9103
ENERGY: 900000 4.3181 8.3063 16.5003 0.0000 -10491.9852 1391.4900 0.0000 0.0000 1737.3036 -7334.0668 298.2265 -9071.3704 -7370.8055 300.4160 -329.8353 -304.5582 30299.7817 79.9338 160.9719
ENERGY: 1200000 2.7102 9.8026 18.2400 0.0000 -10542.0143 1374.7796 0.0000 0.0000 1764.1417 -7372.3403 302.8335 -9136.4820 -7365.7682 300.8207 -275.0447 -129.2514 30398.0493 42.2151 125.7710
ENERGY: 1500000 5.5739 13.0217 16.3423 0.0000 -10626.4886 1476.0849 0.0000 0.0000 1834.2670 -7281.1987 314.8713 -9115.4657 -7365.5404 300.9347 308.7301 374.8691 30243.5729 62.5603 142.7407
TCL: Running FEP window  16: Lambda1 0.7500000000000001 Lambda2 0.8000000000000002 [dLambda 0.050000000000000044]
TCL: Setting parameter firsttimestep to 0
TCL: Setting parameter alchLambda to 0.7500000000000001
Info: NONBONDED TABLE R-SQUARED SPACING: 0.0625
Info: NONBONDED TABLE SIZE: 705 POINTS
TCL: Setting parameter alchLambda2 to 0.8000000000000002
Info: NONBONDED TABLE R-SQUARED SPACING: 0.0625
Info: NONBONDED TABLE SIZE: 705 POINTS
TCL: Running for 1500000 steps
ETITLE: TS BOND ANGLE DIHED IMPRP ELECT VDW BOUNDARY MISC KINETIC TOTAL TEMP POTENTIAL TOTALAVG TEMPAVG PRESSURE GPRESSURE VOLUME PRESSAVG GPRESSAVG
ENERGY: 0 5.5738 13.0217 16.3423 0.0000 -10627.5079 1476.1274 0.0000 0.0000 1833.3538 -7283.0890 314.7145 -9116.4427 -7283.0890 314.7145 320.8235 389.0574 30243.5729 320.8235 389.0574
ENERGY: 300000 3.0779 11.8402 15.3610 0.0000 -10669.3236 1435.7880 0.0000 0.0000 1720.0774 -7483.1791 295.2694 -9203.2565 -7374.1641 305.3929 -182.8949 -121.2790 30068.2406 12.2557 64.5467
ENERGY: 600000 3.2580 9.5448 19.5502 0.0000 -10475.8790 1425.1943 0.0000 0.0000 1799.4989 -7218.8329 308.9030 -9018.3318 -7356.9469 303.4404 276.9950 334.3277 30201.8104 -17.1483 43.9345
ENERGY: 900000 4.3237 10.7063 17.9906 0.0000 -10522.4691 1383.1634 0.0000 0.0000 1748.5885 -7357.6966 300.1637 -9106.2851 -7357.3255 304.0314 -452.3314 -457.8457 30470.4905 -47.4537 20.3241
ENERGY: 1200000 3.4617 8.1505 19.3682 0.0000 -10625.1401 1420.1009 0.0000 0.0000 1763.6352 -7410.4237 302.7466 -9174.0589 -7363.4643 303.0024 -90.8229 -111.7583 29840.0682 -59.5925 -3.1414
ENERGY: 1500000 8.3810 7.9299 17.3095 0.0000 -10529.8991 1367.5539 0.0000 0.0000 1755.7151 -7373.0097 301.3870 -9128.7248 -7361.1369 303.0211 30.8141 74.8462 29386.3640 -70.2286 -22.3953
TCL: Running FEP window  17: Lambda1 0.8000000000000002 Lambda2 0.8500000000000002 [dLambda 0.050000000000000044]
TCL: Setting parameter firsttimestep to 0
TCL: Setting parameter alchLambda to 0.8000000000000002
Info: NONBONDED TABLE R-SQUARED SPACING: 0.0625
Info: NONBONDED TABLE SIZE: 705 POINTS
TCL: Setting parameter alchLambda2 to 0.8500000000000002
Info: NONBONDED TABLE R-SQUARED SPACING: 0.0625
Info: NONBONDED TABLE SIZE: 705 POINTS
TCL: Running for 1500000 steps
ETITLE: TS BOND ANGLE DIHED IMPRP ELECT VDW BOUNDARY MISC KINETIC TOTAL TEMP POTENTIAL TOTALAVG TEMPAVG PRESSURE GPRESSURE VOLUME PRESSAVG GPRESSAVG
ENERGY: 0 8.3810 7.9299 17.3095 0.0000 -10531.5675 1368.2236 0.0000 0.0000 1754.8479 -7374.8755 301.2382 -9129.7234 -7374.8755 301.2382 17.6052 97.4034 29386.3640 17.6052 97.4034
ENERGY: 300000 5.5319 13.2172 14.0928 0.0000 -10553.0415 1353.2756 0.0000 0.0000 1802.0342 -7364.8899 309.3382 -9166.9241 -7361.1133 302.1275 -803.1655 -735.1879 30423.3587 -116.5662 -64.5261
ENERGY: 600000 2.4733 13.5191 16.1479 0.0000 -10530.8249 1401.5644 0.0000 0.0000 1720.4556 -7376.6646 295.3344 -9097.1202 -7374.9702 298.6691 -301.1855 -298.7674 30402.5393 29.4388 87.5163
ENERGY: 900000 4.3784 8.7592 16.0245 0.0000 -10559.6544 1425.8680 0.0000 0.0000 1790.9260 -7313.6984 307.4313 -9104.6243 -7360.1216 300.6107 9.4396 84.1856 30354.4024 77.6643 137.7220
ENERGY: 1200000 5.5306 9.8761 17.6895 0.0000 -10600.9546 1426.1009 0.0000 0.0000 1673.5383 -7468.2192 287.2805 -9141.7575 -7375.1231 298.7908 65.9086 105.2912 29912.0983 -37.4759 20.0409
ENERGY: 1500000 4.1725 11.1586 14.8976 0.0000 -10681.7958 1536.9982 0.0000 0.0000 1773.2142 -7341.3546 304.3909 -9114.5688 -7370.5063 300.1541 1021.5816 1072.5079 29953.9534 54.3360 112.7107
TCL: Running FEP window  18: Lambda1 0.8500000000000002 Lambda2 0.9000000000000002 [dLambda 0.050000000000000044]
TCL: Setting parameter firsttimestep to 0
TCL: Setting parameter alchLambda to 0.8500000000000002
Info: NONBONDED TABLE R-SQUARED SPACING: 0.0625
Info: NONBONDED TABLE SIZE: 705 POINTS
TCL: Setting parameter alchLambda2 to 0.9000000000000002
Info: NONBONDED TABLE R-SQUARED SPACING: 0.0625
Info: NONBONDED TABLE SIZE: 705 POINTS
TCL: Running for 1500000 steps
ETITLE: TS BOND ANGLE DIHED IMPRP ELECT VDW BOUNDARY MISC KINETIC TOTAL TEMP POTENTIAL TOTALAVG TEMPAVG PRESSURE GPRESSURE VOLUME PRESSAVG GPRESSAVG
ENERGY: 0 4.1725 11.1586 14.8976 0.0000 -10682.8348 1539.8065 0.0000 0.0000 1772.3326 -7340.4669 304.2396 -9112.7996 -7340.4669 304.2396 1043.2839 1121.7769 29953.9534 1043.2839 1121.7769
ENERGY: 300000 4.8223 8.6077 18.9311 0.0000 -10626.7314 1431.5774 0.0000 0.0000 1769.9835 -7392.8094 303.8363 -9162.7930 -7380.2488 301.1217 105.2960 145.8823 30261.7962 339.5746 395.0058
ENERGY: 600000 4.1957 17.6896 17.5891 0.0000 -10657.9976 1434.9745 0.0000 0.0000 1752.4558 -7431.0929 300.8275 -9183.5487 -7383.0475 301.7568 43.0538 116.3998 29969.3817 314.6618 377.4791
ENERGY: 900000 4.7966 16.6294 14.1400 0.0000 -10438.6032 1324.9759 0.0000 0.0000 1726.7223 -7351.3390 296.4101 -9078.0613 -7382.6866 300.7395 -914.0089 -877.9764 30547.0525 53.4533 112.2290
ENERGY: 1200000 2.9111 12.8326 17.1816 0.0000 -10567.7144 1438.2557 0.0000 0.0000 1717.0604 -7379.4729 294.7515 -9096.5334 -7376.8120 301.8247 627.2704 706.6273 29560.4928 124.1187 186.1440
ENERGY: 1500000 4.8966 13.8178 14.2403 0.0000 -10575.3338 1425.1103 0.0000 0.0000 1719.7290 -7397.5398 295.2096 -9117.2688 -7380.9434 301.5028 277.1537 332.0915 29976.8539 113.4510 177.8797
TCL: Running FEP window  19: Lambda1 0.9000000000000002 Lambda2 0.9500000000000003 [dLambda 0.050000000000000044]
TCL: Setting parameter firsttimestep to 0
TCL: Setting parameter alchLambda to 0.9000000000000002
Info: NONBONDED TABLE R-SQUARED SPACING: 0.0625
Info: NONBONDED TABLE SIZE: 705 POINTS
TCL: Setting parameter alchLambda2 to 0.9500000000000003
Info: NONBONDED TABLE R-SQUARED SPACING: 0.0625
Info: NONBONDED TABLE SIZE: 705 POINTS
TCL: Running for 1500000 steps
ETITLE: TS BOND ANGLE DIHED IMPRP ELECT VDW BOUNDARY MISC KINETIC TOTAL TEMP POTENTIAL TOTALAVG TEMPAVG PRESSURE GPRESSURE VOLUME PRESSAVG GPRESSAVG
ENERGY: 0 4.8966 13.8177 14.2403 0.0000 -10576.8274 1426.0584 0.0000 0.0000 1718.8690 -7398.9454 295.0620 -9117.8144 -7398.9454 295.0620 276.1272 360.1089 29976.8539 276.1272 360.1089
ENERGY: 300000 4.3759 10.3242 16.4018 0.0000 -10522.8314 1330.6433 0.0000 0.0000 1811.2779 -7349.8083 310.9249 -9161.0862 -7387.1326 297.8242 -558.2402 -600.7058 29945.1177 -138.7810 -98.4755
ENERGY: 600000 7.2915 10.2599 13.7565 0.0000 -10548.6782 1350.2426 0.0000 0.0000 1709.8405 -7457.2873 293.5121 -9167.1277 -7384.8338 298.8029 -833.3572 -719.3559 30369.1974 -92.3673 -43.8610
ENERGY: 900000 6.8479 8.7491 18.0224 0.0000 -10804.4322 1471.9870 0.0000 0.0000 1780.2342 -7518.5915 305.5960 -9298.8257 -7396.2441 298.3513 -73.9751 -32.0902 30038.5258 -196.3998 -141.9343
ENERGY: 1200000 3.7956 10.8171 14.8394 0.0000 -10490.7526 1388.4020 0.0000 0.0000 1797.6219 -7275.2766 308.5808 -9072.8985 -7384.0812 300.4048 -177.8186 -133.3665 30520.7464 -169.9987 -108.8346
ENERGY: 1500000 3.3971 12.2476 16.1143 0.0000 -10529.2661 1360.9398 0.0000 0.0000 1722.4519 -7414.1155 295.6770 -9136.5673 -7383.8140 300.5181 -371.7593 -285.9673 30155.2306 -155.9668 -88.1878
TCL: Running FEP window  20: Lambda1 0.9500000000000003 Lambda2 1.0    [dLambda 0.04999999999999971]
TCL: Setting parameter firsttimestep to 0
TCL: Setting parameter alchLambda to 0.9500000000000003
Info: NONBONDED TABLE R-SQUARED SPACING: 0.0625
Info: NONBONDED TABLE SIZE: 705 POINTS
TCL: Setting parameter alchLambda2 to 1.0
Info: NONBONDED TABLE R-SQUARED SPACING: 0.0625
Info: NONBONDED TABLE SIZE: 705 POINTS
TCL: Running for 1500000 steps
ETITLE: TS BOND ANGLE DIHED IMPRP ELECT VDW BOUNDARY MISC KINETIC TOTAL TEMP POTENTIAL TOTALAVG TEMPAVG PRESSURE GPRESSURE VOLUME PRESSAVG GPRESSAVG
ENERGY: 0 3.3971 12.2476 16.1143 0.0000 -10530.8896 1360.7916 0.0000 0.0000 1721.5872 -7416.7519 295.5286 -9138.3391 -7416.7519 295.5286 -350.9085 -273.3119 30155.2306 -350.9085 -273.3119
ENERGY: 300000 3.2075 12.4058 18.6525 0.0000 -10592.9827 1409.8425 0.0000 0.0000 1823.9897 -7324.8847 313.1071 -9148.8744 -7414.7446 301.5721 -115.5160 -69.6267 30101.5811 -16.1708 62.4774
ENERGY: 600000 4.2641 12.2508 18.3648 0.0000 -10632.2891 1420.9721 0.0000 0.0000 1716.8983 -7459.5391 294.7237 -9176.4374 -7413.3311 299.3492 3.7332 80.5582 29687.2793 3.3767 74.4077
ENERGY: 900000 4.9514 10.4083 16.8876 0.0000 -10552.9579 1398.8219 0.0000 0.0000 1758.8004 -7363.0883 301.9166 -9121.8887 -7399.7399 298.9474 -60.9050 -3.3538 29980.6604 35.1171 102.1136
ENERGY: 1200000 3.4590 10.7370 16.3173 0.0000 -10541.0503 1436.5983 0.0000 0.0000 1775.3449 -7298.5937 304.7567 -9073.9386 -7396.5617 297.7906 321.7516 439.4474 30243.1352 19.4913 88.5700
ENERGY: 1500000 2.3870 8.8565 14.6270 0.0000 -10553.2471 1430.2256 0.0000 0.0000 1698.2218 -7398.9293 291.5177 -9097.1511 -7398.8051 297.5888 227.6555 355.7675 29943.9733 -6.2540 62.5491
TCL: Exiting due to exit command.
