Info: SIMULATION PARAMETERS:
Info: TIMESTEP               2
Info: NUMBER OF STEPS        0
Info: STEPS PER CYCLE        10
Info: PERIODIC CELL BASIS 1  29.6338 0 0
Info: PERIODIC CELL BASIS 2  0 36.2772 0
Info: PERIODIC CELL BASIS 3  0 0 28.1896
Info: PERIODIC CELL CENTER   0 0 0
Info: WRAPPING WATERS AROUND PERIODIC BOUNDARIES ON OUTPUT.
Info: WRAPPING ALL CLUSTERS AROUND PERIODIC BOUNDARIES ON OUTPUT.
Info: FIRST LDB TIMESTEP     50
Info: LAST LDB TIMESTEP     -1
Info: HOM BACKGROUND SCALING 1
Info: PME BACKGROUND SCALING 1
Info: MIN ATOMS PER PATCH    40
Info: EMPTY PATCH LOAD       40 ATOMS
Info: VELOCITY FILE          mobley_7608435_equil.vel
Info: CENTER OF MASS MOVING INITIALLY? NO
Info: DIELECTRIC             1
Info: EXCLUDE                SCALED ONE-FOUR
Info: 1-4 ELECTROSTATICS SCALED BY 0.833333
Info: MODIFIED 1-4 VDW PARAMETERS WILL BE USED
Info: DCD FILENAME           mobley_7608435_prod.dcd
Info: DCD FREQUENCY          100000
Info: DCD FIRST STEP         100000
Info: DCD FILE WILL CONTAIN UNIT CELL DATA
Info: XST FILENAME           mobley_7608435_prod.xst
Info: XST FREQUENCY          100000
Info: NO VELOCITY DCD OUTPUT
Info: NO FORCE DCD OUTPUT
Info: OUTPUT FILENAME        mobley_7608435_prod
Info: BINARY OUTPUT FILES WILL BE USED
Info: RESTART FILENAME       mobley_7608435_prod.restart
Info: RESTART FREQUENCY      100000
Info: BINARY RESTART FILES WILL BE USED
Info: CUTOFF                 9
Info: PAIRLIST DISTANCE      11
Info: PAIRLIST SHRINK RATE   0.01
Info: PAIRLIST GROW RATE     0.01
Info: PAIRLIST TRIGGER       0.3
Info: PAIRLISTS PER CYCLE    2
Info: PAIRLISTS ENABLED
Info: MARGIN                 2
Info: HYDROGEN GROUP CUTOFF  2.5
Info: PATCH DIMENSION        15.5
Info: ENERGY OUTPUT STEPS    100000
Info: ENERGY EVALUATION STEPS    100000
Info: OUTPUT ENERGY PRECISION 4
Info: CROSSTERM ENERGY INCLUDED IN DIHEDRAL
Info: TIMING OUTPUT STEPS    1000000
Info: PRESSURE OUTPUT STEPS  100000
Info: ALCHEMICAL FEP ON
Info: FEP CURRENT LAMBDA VALUE     1
Info: FEP COMPARISON LAMBDA VALUE  0.95
Info: FEP INTRA-ALCHEMICAL NON-BONDED INTERACTIONS WILL BE RETAINED
Info: FEP INTRA-ALCHEMICAL BONDED INTERACTIONS WILL BE RETAINED
Info: FEP VDW SHIFTING COEFFICIENT 5
Info: FEP ELEC. ACTIVE FOR ANNIHILATED PARTICLES BETWEEN LAMBDA = 0 AND LAMBDA = 0.5
Info: FEP ELEC. ACTIVE FOR EXNIHILATED PARTICLES BETWEEN LAMBDA = 0.5 AND LAMBDA = 1
Info: FEP VDW ACTIVE FOR ANNIHILATED PARTICLES BETWEEN LAMBDA = 0 AND LAMBDA = 1
Info: FEP VDW ACTIVE FOR EXNIHILATED PARTICLES BETWEEN LAMBDA = 0 AND LAMBDA = 1
Info: FEP BOND ACTIVE FOR ANNIHILATED PARTICLES BETWEEN LAMBDA = 1 AND LAMBDA = 1
Info: FEP BOND ACTIVE FOR EXNIHILATED PARTICLES BETWEEN LAMBDA = 0 AND LAMBDA = 0
Info: LANGEVIN DYNAMICS ACTIVE
Info: LANGEVIN TEMPERATURE   300
Info: LANGEVIN USING BBK INTEGRATOR
Info: LANGEVIN DAMPING COEFFICIENT IS 1 INVERSE PS
Info: LANGEVIN DYNAMICS APPLIED TO HYDROGENS
Info: LANGEVIN PISTON PRESSURE CONTROL ACTIVE
Info:        TARGET PRESSURE IS 1.01325 BAR
Info:     OSCILLATION PERIOD IS 50 FS
Info:             DECAY TIME IS 25 FS
Info:     PISTON TEMPERATURE IS 300 K
Info:       PRESSURE CONTROL IS GROUP-BASED
Info:    INITIAL STRAIN RATE IS 0.000646517 0.000646517 0.000646517
Info:       CELL FLUCTUATION IS ISOTROPIC
Info: PARTICLE MESH EWALD (PME) ACTIVE
Info: PME TOLERANCE               1e-06
Info: PME EWALD COEFFICIENT       0.348832
Info: PME INTERPOLATION ORDER     4
Info: PME GRID DIMENSIONS         32 40 32
Info: PME MAXIMUM GRID SPACING    1
Info: PME CALCULATION WILL BE PERFORMED ON GPU
Info: FULL ELECTROSTATIC EVALUATION FREQUENCY      2
Info: USING VERLET I (r-RESPA) MTS SCHEME.
Info: C1 SPLITTING OF LONG RANGE ELECTROSTATICS
Info: PLACING ATOMS IN PATCHES BY HYDROGEN GROUPS
Info: RIGID BONDS TO HYDROGEN : ALL
Info:         ERROR TOLERANCE : 1e-08
Info:          MAX ITERATIONS : 100
Info: RIGID WATER USING SETTLE ALGORITHM
Info: RANDOM NUMBER SEED     1744073268
Info: USE HYDROGEN BONDS?    NO
Info: Using AMBER format force field!
Info: AMBER PARM FILE        mobley_7608435.prmtop
Info: COORDINATE PDB         mobley_7608435.pdb
Info: Exclusions will be read from PARM file!
Info: SCNB (VDW SCALING)     2
Info: USING ARITHMETIC MEAN TO COMBINE L-J SIGMA PARAMETERS
Info: BINARY COORDINATES     mobley_7608435_equil.coor
Info: SUMMARY OF PARAMETERS:
Info: 9 BONDS
Info: 11 ANGLES
Info:   11 HARMONIC
Info:   0 COSINE-BASED
Info: 16 DIHEDRAL
Info: 0 IMPROPER
Info: 0 CROSSTERM
Info: 0 VDW
Info: 36 VDW_PAIRS
Info: 0 NBTHOLE_PAIRS
Info: To read alchdata from file: mobley_7608435.pdb
Info: To read alchflag data from column: 5
Info: STRUCTURE SUMMARY:
Info: 2924 ATOMS
Info: 2923 BONDS
Info: 52 ANGLES
Info: 81 DIHEDRALS
Info: 0 IMPROPERS
Info: 0 CROSSTERMS
Info: 3040 EXCLUSIONS
Info: 2913 RIGID BONDS
Info: ALCH: 0 ATOMS TO DISAPPEAR IN FINAL STATE
Info: ALCH: 29 ATOMS TO APPEAR IN FINAL STATE
Info: 5859 DEGREES OF FREEDOM
Info: 976 HYDROGEN GROUPS
Info: 4 ATOMS IN LARGEST HYDROGEN GROUP
Info: 976 MIGRATION GROUPS
Info: 4 ATOMS IN LARGEST MIGRATION GROUP
Info: TOTAL MASS = 17543.7 amu
Info: TOTAL CHARGE = 9.99831e-05 e
Info: MASS DENSITY = 0.961325 g/cm^3
Info: ATOM DENSITY = 0.0964868 atoms/A^3
Info: ADDED 0 IMPLICIT EXCLUSIONS
Info: NONBONDED TABLE R-SQUARED SPACING: 0.0625
Info: NONBONDED TABLE SIZE: 705 POINTS
Info: REMOVING COM VELOCITY -0.0342989 -0.0591989 -0.0643925
Info: Use 3D box decompostion in PME FFT.
Info: Updated CUDA force table with 4096 elements.
Info: Updated CUDA LJ table with 8 x 8 elements.
Info: Found 32 unique exclusion lists needing 124 bytes
TCL: Running for 1500000 steps
ETITLE: TS BOND ANGLE DIHED IMPRP ELECT VDW BOUNDARY MISC KINETIC TOTAL TEMP POTENTIAL TOTALAVG TEMPAVG PRESSURE GPRESSURE VOLUME PRESSAVG GPRESSAVG
ENERGY: 0 6.1057 12.8087 7.6290 0.0000 -10571.9774 1403.7408 0.0000 0.0000 1748.1794 -7393.5138 300.2983 -9141.6932 -7393.5138 300.2983 -255.2610 -173.6141 30304.6749 -255.2610 -173.6141
ENERGY: 300000 3.6397 15.7366 4.7592 0.0000 -10548.0165 1415.3894 0.0000 0.0000 1758.1238 -7350.3677 302.0065 -9108.4915 -7360.1820 303.2031 77.7103 147.6082 30297.3144 -237.9877 -159.2399
ENERGY: 600000 3.0754 15.1554 4.5475 0.0000 -10503.9687 1387.1394 0.0000 0.0000 1759.4279 -7334.6232 302.2305 -9094.0510 -7358.0720 300.3431 -489.6391 -434.5705 30976.0176 -276.0339 -195.5596
ENERGY: 900000 1.4863 7.9337 4.8218 0.0000 -10531.6129 1389.0036 0.0000 0.0000 1705.0288 -7423.3387 292.8860 -9128.3675 -7370.9413 299.7061 92.0195 142.8917 29724.9937 -245.0964 -154.9285
ENERGY: 1200000 2.1797 12.1333 6.1975 0.0000 -10455.7602 1372.7568 0.0000 0.0000 1738.9882 -7323.5048 298.7195 -9062.4930 -7377.7522 298.4461 -428.3650 -348.6184 30753.2092 -212.7463 -129.3535
ENERGY: 1500000 2.7818 11.7053 8.5629 0.0000 -10576.6210 1426.6912 0.0000 0.0000 1730.7160 -7396.1637 297.2985 -9126.8798 -7381.7644 298.4719 64.8442 151.5302 30206.5301 -222.8375 -145.1755
TCL: Running FEP window   2: Lambda1 0.95   Lambda2 0.8999999999999999 [dLambda -0.050000000000000044]
TCL: Setting parameter firsttimestep to 0
TCL: Setting parameter alchLambda to 0.95
Info: NONBONDED TABLE R-SQUARED SPACING: 0.0625
Info: NONBONDED TABLE SIZE: 705 POINTS
TCL: Setting parameter alchLambda2 to 0.8999999999999999
Info: NONBONDED TABLE R-SQUARED SPACING: 0.0625
Info: NONBONDED TABLE SIZE: 705 POINTS
TCL: Running for 1500000 steps
ETITLE: TS BOND ANGLE DIHED IMPRP ELECT VDW BOUNDARY MISC KINETIC TOTAL TEMP POTENTIAL TOTALAVG TEMPAVG PRESSURE GPRESSURE VOLUME PRESSAVG GPRESSAVG
ENERGY: 0 2.7818 11.7053 8.5629 0.0000 -10575.1418 1426.3903 0.0000 0.0000 1729.8323 -7395.8691 297.1467 -9125.7015 -7395.8691 297.1467 50.9276 128.6170 30206.5301 50.9276 128.6170
ENERGY: 300000 3.4654 12.3712 7.1167 0.0000 -10472.8876 1402.5890 0.0000 0.0000 1734.8288 -7312.5165 298.0050 -9047.3453 -7339.0535 300.6786 -145.4082 -79.3371 30469.8408 -93.5960 -11.8644
ENERGY: 600000 3.4879 14.4693 5.8331 0.0000 -10525.9834 1394.3734 0.0000 0.0000 1764.3618 -7343.4579 303.0781 -9107.8197 -7343.3360 299.8156 -225.9013 -156.0858 30142.1522 138.8985 211.1284
ENERGY: 900000 4.1084 14.1664 5.0457 0.0000 -10487.0477 1381.4091 0.0000 0.0000 1759.7350 -7322.5831 302.2833 -9082.3181 -7341.2847 299.8744 -255.4186 -191.1723 30238.7735 54.3107 119.8323
ENERGY: 1200000 2.9547 13.9827 5.6154 0.0000 -10671.0139 1460.6577 0.0000 0.0000 1729.4405 -7458.3628 297.0794 -9187.8034 -7350.1114 300.2417 493.7107 563.5620 29413.0031 43.6778 110.3467
ENERGY: 1500000 2.1089 17.6776 6.1880 0.0000 -10610.5060 1413.2587 0.0000 0.0000 1731.1448 -7440.1280 297.3721 -9171.2728 -7363.6359 300.0224 46.3282 45.2552 30092.4182 48.1050 113.9110
TCL: Running FEP window   3: Lambda1 0.8999999999999999 Lambda2 0.8499999999999999 [dLambda -0.050000000000000044]
TCL: Setting parameter firsttimestep to 0
TCL: Setting parameter alchLambda to 0.8999999999999999
Info: NONBONDED TABLE R-SQUARED SPACING: 0.0625
Info: NONBONDED TABLE SIZE: 705 POINTS
TCL: Setting parameter alchLambda2 to 0.8499999999999999
Info: NONBONDED TABLE R-SQUARED SPACING: 0.0625
Info: NONBONDED TABLE SIZE: 705 POINTS
TCL: Running for 1500000 steps
ETITLE: TS BOND ANGLE DIHED IMPRP ELECT VDW BOUNDARY MISC KINETIC TOTAL TEMP POTENTIAL TOTALAVG TEMPAVG PRESSURE GPRESSURE VOLUME PRESSAVG GPRESSAVG
ENERGY: 0 2.1089 17.6776 6.1880 0.0000 -10609.2587 1413.3461 0.0000 0.0000 1730.2981 -7439.6400 297.2267 -9169.9381 -7439.6400 297.2267 -45.5604 29.2473 30092.4182 -45.5604 29.2473
ENERGY: 300000 1.9688 14.7154 4.1790 0.0000 -10604.2234 1405.5625 0.0000 0.0000 1799.0199 -7378.7777 309.0316 -9177.7977 -7410.6960 303.8825 -224.2891 -154.6637 30260.7413 -167.0305 -130.0941
ENERGY: 600000 3.0980 12.7219 5.3985 0.0000 -10558.0204 1386.7500 0.0000 0.0000 1776.5081 -7373.5439 305.1645 -9150.0520 -7405.2897 303.9559 -48.2217 79.1485 29653.4475 -30.0916 19.4416
ENERGY: 900000 2.8625 21.4353 4.5305 0.0000 -10469.5682 1398.2814 0.0000 0.0000 1763.6735 -7278.7850 302.9598 -9042.4585 -7397.4047 303.2185 -1.7090 56.8254 30312.7806 -2.7608 46.6997
ENERGY: 1200000 3.5871 7.7852 4.4162 0.0000 -10587.9482 1376.9044 0.0000 0.0000 1726.1704 -7469.0850 296.5177 -9195.2554 -7404.0894 301.4948 -653.7876 -590.6940 29976.3922 -29.1838 26.1112
ENERGY: 1500000 10.5472 9.9456 10.2180 0.0000 -10497.1457 1349.6379 0.0000 0.0000 1730.5717 -7386.2252 297.2737 -9116.7970 -7409.6603 300.0702 -588.3084 -471.6553 29812.4888 -13.0724 40.4218
TCL: Running FEP window   4: Lambda1 0.8499999999999999 Lambda2 0.7999999999999998 [dLambda -0.050000000000000044]
TCL: Setting parameter firsttimestep to 0
TCL: Setting parameter alchLambda to 0.8499999999999999
Info: NONBONDED TABLE R-SQUARED SPACING: 0.0625
Info: NONBONDED TABLE SIZE: 705 POINTS
TCL: Setting parameter alchLambda2 to 0.7999999999999998
Info: NONBONDED TABLE R-SQUARED SPACING: 0.0625
Info: NONBONDED TABLE SIZE: 705 POINTS
TCL: Running for 1500000 steps
ETITLE: TS BOND ANGLE DIHED IMPRP ELECT VDW BOUNDARY MISC KINETIC TOTAL TEMP POTENTIAL TOTALAVG TEMPAVG PRESSURE GPRESSURE VOLUME PRESSAVG GPRESSAVG
ENERGY: 0 10.5472 9.9456 10.2180 0.0000 -10495.8416 1349.2924 0.0000 0.0000 1729.7199 -7386.1185 297.1274 -9115.8383 -7386.1185 297.1274 -569.3828 -488.8262 29812.4888 -569.3828 -488.8262
ENERGY: 300000 0.8415 13.4820 5.7472 0.0000 -10493.2298 1346.8064 0.0000 0.0000 1810.7407 -7315.6119 311.0450 -9126.3527 -7376.9972 301.3638 -610.5806 -526.2787 30358.9721 101.4464 174.9875
ENERGY: 600000 3.6400 16.1866 8.1387 0.0000 -10391.1033 1281.0425 0.0000 0.0000 1729.2269 -7352.8686 297.0427 -9082.0955 -7362.1301 301.0882 -759.2550 -743.2765 29943.0238 -230.2349 -160.3590
ENERGY: 900000 4.5178 9.0465 5.9984 0.0000 -10533.1591 1376.0114 0.0000 0.0000 1724.7991 -7412.7858 296.2821 -9137.5850 -7360.7661 300.5735 -191.6934 -158.0640 29854.6762 -248.3232 -180.5279
ENERGY: 1200000 2.3489 13.7495 5.5457 0.0000 -10600.4735 1395.8647 0.0000 0.0000 1705.3352 -7477.6296 292.9386 -9182.9647 -7369.2021 299.7367 -592.9913 -504.6238 30359.1926 -303.5459 -232.5888
ENERGY: 1500000 1.5537 13.1863 4.6935 0.0000 -10499.6118 1361.8318 0.0000 0.0000 1738.6906 -7379.6559 298.6683 -9118.3465 -7362.8218 300.1768 -229.5470 -166.1293 29769.8966 -303.9761 -232.4946
TCL: Running FEP window   5: Lambda1 0.7999999999999998 Lambda2 0.7499999999999998 [dLambda -0.050000000000000044]
TCL: Setting parameter firsttimestep to 0
TCL: Setting parameter alchLambda to 0.7999999999999998
Info: NONBONDED TABLE R-SQUARED SPACING: 0.0625
Info: NONBONDED TABLE SIZE: 705 POINTS
TCL: Setting parameter alchLambda2 to 0.7499999999999998
Info: NONBONDED TABLE R-SQUARED SPACING: 0.0625
Info: NONBONDED TABLE SIZE: 705 POINTS
TCL: Running for 1500000 steps
ETITLE: TS BOND ANGLE DIHED IMPRP ELECT VDW BOUNDARY MISC KINETIC TOTAL TEMP POTENTIAL TOTALAVG TEMPAVG PRESSURE GPRESSURE VOLUME PRESSAVG GPRESSAVG
ENERGY: 0 1.5537 13.1863 4.6935 0.0000 -10498.7580 1361.6363 0.0000 0.0000 1737.8358 -7379.8524 298.5215 -9117.6882 -7379.8524 298.5215 -255.1701 -182.8489 29769.8966 -255.1701 -182.8489
ENERGY: 300000 2.1535 16.9573 7.4915 0.0000 -10457.8928 1391.6313 0.0000 0.0000 1784.8514 -7254.8078 306.5977 -9039.6592 -7325.3175 302.2533 -2.1725 37.5729 30086.7460 -423.5409 -379.1398
ENERGY: 600000 2.0110 16.5694 6.4254 0.0000 -10557.6927 1395.0797 0.0000 0.0000 1768.0005 -7369.6066 303.7031 -9137.6071 -7332.1223 301.8108 -373.4412 -278.9911 30166.9411 -357.4315 -312.0449
ENERGY: 900000 4.7409 15.1255 4.6921 0.0000 -10452.6837 1351.1462 0.0000 0.0000 1729.1183 -7347.8607 297.0240 -9076.9790 -7331.9961 301.3716 -472.4256 -390.1231 30286.1143 -375.1461 -330.2314
ENERGY: 1200000 2.5764 19.0089 6.7489 0.0000 -10496.7265 1348.5327 0.0000 0.0000 1740.8496 -7379.0100 299.0392 -9119.8596 -7345.6005 300.7245 -572.4971 -522.5272 30198.4704 -254.4808 -212.2944
ENERGY: 1500000 2.2785 12.1157 5.8203 0.0000 -10461.6299 1401.5688 0.0000 0.0000 1754.0252 -7285.8214 301.3025 -9039.8465 -7341.9605 300.8305 95.1658 122.3481 29941.1845 -166.8375 -124.0115
TCL: Running FEP window   6: Lambda1 0.7499999999999998 Lambda2 0.6999999999999997 [dLambda -0.050000000000000044]
TCL: Setting parameter firsttimestep to 0
TCL: Setting parameter alchLambda to 0.7499999999999998
Info: NONBONDED TABLE R-SQUARED SPACING: 0.0625
Info: NONBONDED TABLE SIZE: 705 POINTS
TCL: Setting parameter alchLambda2 to 0.6999999999999997
Info: NONBONDED TABLE R-SQUARED SPACING: 0.0625
Info: NONBONDED TABLE SIZE: 705 POINTS
TCL: Running for 1500000 steps
ETITLE: TS BOND ANGLE DIHED IMPRP ELECT VDW BOUNDARY MISC KINETIC TOTAL TEMP POTENTIAL TOTALAVG TEMPAVG PRESSURE GPRESSURE VOLUME PRESSAVG GPRESSAVG
ENERGY: 0 2.2785 12.1157 5.8203 0.0000 -10461.2047 1401.6377 0.0000 0.0000 1753.1591 -7286.1933 301.1537 -9039.3524 -7286.1933 301.1537 34.5805 108.8254 29941.1845 34.5805 108.8254
ENERGY: 300000 2.8888 14.2194 4.3200 0.0000 -10554.7056 1448.3722 0.0000 0.0000 1708.1000 -7376.8053 293.4136 -9084.9052 -7363.3261 299.8602 138.9328 211.4892 30184.8777 -38.9922 38.8564
ENERGY: 600000 2.2959 11.1595 8.4717 0.0000 -10683.8307 1491.3459 0.0000 0.0000 1807.3811 -7363.1766 310.4678 -9170.5577 -7365.4924 303.2591 640.9884 639.8159 29803.2826 161.8729 218.4501
ENERGY: 900000 1.5609 19.6264 5.1076 0.0000 -10584.6285 1426.8290 0.0000 0.0000 1785.6962 -7345.8085 306.7429 -9131.5047 -7347.4655 304.9873 113.2356 173.9407 29891.2884 77.2243 143.5870
ENERGY: 1200000 2.9089 14.2729 4.4754 0.0000 -10606.7840 1418.8580 0.0000 0.0000 1778.2494 -7388.0195 305.4637 -9166.2689 -7351.7841 304.2495 -150.6896 -55.5926 29844.3273 -6.2589 66.3864
ENERGY: 1500000 1.8397 12.1204 6.6405 0.0000 -10623.4282 1406.5854 0.0000 0.0000 1733.3615 -7462.8807 297.7529 -9196.2422 -7356.9301 304.2968 -233.8403 -183.6609 29789.4742 41.0249 109.3354
TCL: Running FEP window   7: Lambda1 0.6999999999999997 Lambda2 0.6499999999999997 [dLambda -0.050000000000000044]
TCL: Setting parameter firsttimestep to 0
TCL: Setting parameter alchLambda to 0.6999999999999997
Info: NONBONDED TABLE R-SQUARED SPACING: 0.0625
Info: NONBONDED TABLE SIZE: 705 POINTS
TCL: Setting parameter alchLambda2 to 0.6499999999999997
Info: NONBONDED TABLE R-SQUARED SPACING: 0.0625
Info: NONBONDED TABLE SIZE: 705 POINTS
TCL: Running for 1500000 steps
ETITLE: TS BOND ANGLE DIHED IMPRP ELECT VDW BOUNDARY MISC KINETIC TOTAL TEMP POTENTIAL TOTALAVG TEMPAVG PRESSURE GPRESSURE VOLUME PRESSAVG GPRESSAVG
ENERGY: 0 1.8397 12.1204 6.6405 0.0000 -10622.5372 1406.5824 0.0000 0.0000 1732.4854 -7462.8687 297.6024 -9195.3541 -7462.8687 297.6024 -291.5070 -200.8315 29789.4742 -291.5070 -200.8315
ENERGY: 300000 2.8007 12.5480 10.0932 0.0000 -10626.0268 1414.0525 0.0000 0.0000 1777.3029 -7409.2295 305.3011 -9186.5324 -7378.3377 299.7848 -154.7608 -78.2488 29719.7745 -83.3849 -33.9753
ENERGY: 600000 2.5497 16.5798 5.4876 0.0000 -10621.3686 1523.1900 0.0000 0.0000 1784.3349 -7289.2266 306.5090 -9073.5615 -7361.5299 301.5020 603.7789 688.2566 30513.8641 -84.7147 -36.9702
ENERGY: 900000 2.3865 14.8044 5.6604 0.0000 -10514.5817 1425.5727 0.0000 0.0000 1759.9848 -7306.1728 302.3262 -9066.1576 -7356.6907 300.8306 258.9498 340.7719 30042.8760 -125.5054 -66.8373
ENERGY: 1200000 0.9213 12.1566 6.0117 0.0000 -10372.2878 1298.2495 0.0000 0.0000 1741.3749 -7313.5737 299.1295 -9054.9486 -7357.5122 300.2620 -824.7421 -804.9153 30536.5814 -152.3070 -93.3489
ENERGY: 1500000 3.4399 16.9946 6.1447 0.0000 -10460.2709 1372.9562 0.0000 0.0000 1694.5421 -7366.1935 291.0846 -9060.7356 -7356.2406 299.5228 -522.6022 -408.1631 30490.6357 -117.2667 -54.9621
TCL: Running FEP window   8: Lambda1 0.6499999999999997 Lambda2 0.5999999999999996 [dLambda -0.050000000000000044]
TCL: Setting parameter firsttimestep to 0
TCL: Setting parameter alchLambda to 0.6499999999999997
Info: NONBONDED TABLE R-SQUARED SPACING: 0.0625
Info: NONBONDED TABLE SIZE: 705 POINTS
TCL: Setting parameter alchLambda2 to 0.5999999999999996
Info: NONBONDED TABLE R-SQUARED SPACING: 0.0625
Info: NONBONDED TABLE SIZE: 705 POINTS
TCL: Running for 1500000 steps
ETITLE: TS BOND ANGLE DIHED IMPRP ELECT VDW BOUNDARY MISC KINETIC TOTAL TEMP POTENTIAL TOTALAVG TEMPAVG PRESSURE GPRESSURE VOLUME PRESSAVG GPRESSAVG
ENERGY: 0 3.4399 16.9946 6.1447 0.0000 -10459.0054 1373.6236 0.0000 0.0000 1693.6996 -7365.1030 290.9399 -9058.8025 -7365.1030 290.9399 -500.5179 -411.6996 30490.6357 -500.5179 -411.6996
ENERGY: 300000 3.2128 11.1395 6.3176 0.0000 -10571.0349 1396.6347 0.0000 0.0000 1739.1678 -7414.5624 298.7503 -9153.7302 -7382.0929 294.9974 -91.0960 -146.7311 30084.6425 -320.4334 -284.6380
ENERGY: 600000 5.1903 13.5513 5.1787 0.0000 -10703.9680 1467.8187 0.0000 0.0000 1664.7552 -7547.4738 285.9679 -9212.2290 -7413.4372 293.4339 151.0618 195.9390 29587.5305 -256.7876 -211.9986
ENERGY: 900000 2.8046 9.8714 4.6741 0.0000 -10495.7199 1359.0804 0.0000 0.0000 1765.9684 -7353.3210 303.3541 -9119.2895 -7394.4455 295.7405 -657.9085 -639.8943 30280.4069 -298.2967 -250.0911
ENERGY: 1200000 2.0712 12.2280 6.0663 0.0000 -10516.9316 1375.0561 0.0000 0.0000 1712.6083 -7408.9016 294.1880 -9121.5099 -7386.1078 295.7773 -314.1612 -259.5955 29865.6128 -249.3316 -191.6481
ENERGY: 1500000 3.7331 16.1942 7.6195 0.0000 -10601.5785 1443.7783 0.0000 0.0000 1800.3552 -7329.8982 309.2609 -9130.2534 -7381.3280 297.1648 328.7069 387.7356 29766.1608 -196.3227 -135.6406
TCL: Running FEP window   9: Lambda1 0.5999999999999996 Lambda2 0.5499999999999996 [dLambda -0.050000000000000044]
TCL: Setting parameter firsttimestep to 0
TCL: Setting parameter alchLambda to 0.5999999999999996
Info: NONBONDED TABLE R-SQUARED SPACING: 0.0625
Info: NONBONDED TABLE SIZE: 705 POINTS
TCL: Setting parameter alchLambda2 to 0.5499999999999996
Info: NONBONDED TABLE R-SQUARED SPACING: 0.0625
Info: NONBONDED TABLE SIZE: 705 POINTS
TCL: Running for 1500000 steps
ETITLE: TS BOND ANGLE DIHED IMPRP ELECT VDW BOUNDARY MISC KINETIC TOTAL TEMP POTENTIAL TOTALAVG TEMPAVG PRESSURE GPRESSURE VOLUME PRESSAVG GPRESSAVG
ENERGY: 0 3.7332 16.1941 7.6195 0.0000 -10600.5641 1444.4229 0.0000 0.0000 1799.4591 -7329.1354 309.1070 -9128.5944 -7329.1354 309.1070 301.3092 387.9371 29766.1608 301.3092 387.9371
ENERGY: 300000 4.3301 14.7753 7.7415 0.0000 -10547.4469 1401.5401 0.0000 0.0000 1685.3932 -7433.6667 289.5130 -9119.0599 -7367.4693 302.4301 -330.1350 -214.0398 30351.3193 -41.6747 50.3615
ENERGY: 600000 3.5604 14.6082 5.5576 0.0000 -10633.9999 1485.7259 0.0000 0.0000 1723.5462 -7401.0016 296.0669 -9124.5477 -7359.9082 302.0096 693.2987 768.2614 29753.0512 -36.1618 33.5770
ENERGY: 900000 3.5254 10.9320 5.3429 0.0000 -10445.2695 1378.9237 0.0000 0.0000 1671.6456 -7374.8999 287.1515 -9046.5455 -7352.9301 300.4673 7.7723 110.5323 29775.0771 -59.3645 21.8677
ENERGY: 1200000 1.6379 9.7077 7.2304 0.0000 -10544.4688 1454.8639 0.0000 0.0000 1771.6002 -7299.4287 304.3215 -9071.0289 -7348.5719 301.1137 629.9885 625.8751 29970.6972 2.1229 72.0972
ENERGY: 1500000 4.0824 14.9927 4.1130 0.0000 -10342.4153 1341.2062 0.0000 0.0000 1742.7603 -7235.2606 299.3674 -8978.0209 -7339.8577 300.8427 -422.6832 -341.9280 30410.5962 -35.4726 36.0274
TCL: Running FEP window  10: Lambda1 0.5499999999999996 Lambda2 0.4999999999999996 [dLambda -0.04999999999999999]
TCL: Setting parameter firsttimestep to 0
TCL: Setting parameter alchLambda to 0.5499999999999996
Info: NONBONDED TABLE R-SQUARED SPACING: 0.0625
Info: NONBONDED TABLE SIZE: 705 POINTS
TCL: Setting parameter alchLambda2 to 0.4999999999999996
Info: NONBONDED TABLE R-SQUARED SPACING: 0.0625
Info: NONBONDED TABLE SIZE: 705 POINTS
TCL: Running for 1500000 steps
ETITLE: TS BOND ANGLE DIHED IMPRP ELECT VDW BOUNDARY MISC KINETIC TOTAL TEMP POTENTIAL TOTALAVG TEMPAVG PRESSURE GPRESSURE VOLUME PRESSAVG GPRESSAVG
ENERGY: 0 4.0824 14.9927 4.1130 0.0000 -10341.8386 1341.8474 0.0000 0.0000 1741.9039 -7234.8991 299.2203 -8976.8030 -7234.8991 299.2203 -433.1993 -346.5329 30410.5962 -433.1993 -346.5329
ENERGY: 300000 3.0832 11.8768 5.4874 0.0000 -10512.6116 1366.1996 0.0000 0.0000 1751.2353 -7374.7292 300.8232 -9125.9645 -7337.8517 300.2580 -497.9422 -437.3323 30088.6341 -360.8569 -299.6265
ENERGY: 600000 4.2843 10.5291 8.6759 0.0000 -10392.4449 1307.4188 0.0000 0.0000 1726.4475 -7335.0893 296.5652 -9061.5368 -7336.8034 299.0051 -844.4458 -732.1163 30216.4594 -449.8168 -368.3968
ENERGY: 900000 3.5384 18.3563 5.6382 0.0000 -10668.7234 1487.8630 0.0000 0.0000 1772.5803 -7380.7472 304.4898 -9153.3275 -7358.3852 300.4117 476.4436 493.1593 29959.8703 -237.1567 -164.2983
ENERGY: 1200000 2.1243 12.0884 5.4976 0.0000 -10690.3038 1494.5294 0.0000 0.0000 1793.7204 -7382.3437 308.1212 -9176.0641 -7360.8871 300.3688 489.6435 584.9720 29636.3579 -150.0176 -72.5235
ENERGY: 1500000 1.4052 6.0683 7.1481 0.0000 -10522.3406 1387.5843 0.0000 0.0000 1758.9673 -7361.1673 302.1514 -9120.1346 -7361.5815 301.2723 -218.7513 -121.2757 30006.7932 -103.3234 -22.4886
TCL: Running FEP window  11: Lambda1 0.4999999999999996 Lambda2 0.4499999999999996 [dLambda -0.04999999999999999]
TCL: Setting parameter firsttimestep to 0
TCL: Setting parameter alchLambda to 0.4999999999999996
Info: NONBONDED TABLE R-SQUARED SPACING: 0.0625
Info: NONBONDED TABLE SIZE: 705 POINTS
TCL: Setting parameter alchLambda2 to 0.4499999999999996
Info: NONBONDED TABLE R-SQUARED SPACING: 0.0625
Info: NONBONDED TABLE SIZE: 705 POINTS
TCL: Running for 1500000 steps
ETITLE: TS BOND ANGLE DIHED IMPRP ELECT VDW BOUNDARY MISC KINETIC TOTAL TEMP POTENTIAL TOTALAVG TEMPAVG PRESSURE GPRESSURE VOLUME PRESSAVG GPRESSAVG
ENERGY: 0 1.4052 6.0683 7.1481 0.0000 -10522.4775 1387.6162 0.0000 0.0000 1758.0993 -7362.1404 302.0023 -9120.2397 -7362.1404 302.0023 -214.1976 -131.0624 30006.7932 -214.1976 -131.0624
ENERGY: 300000 4.9784 11.7911 3.8863 0.0000 -10451.6364 1384.7499 0.0000 0.0000 1679.2003 -7367.0304 288.4492 -9046.2307 -7329.2220 303.6970 -300.5025 -237.4564 30075.2810 -107.9106 -49.6992
ENERGY: 600000 4.0359 15.4233 6.1838 0.0000 -10588.7898 1479.6692 0.0000 0.0000 1680.0574 -7403.4201 288.5965 -9083.4776 -7338.8928 300.8385 532.7192 540.5777 29987.4970 37.3435 88.2462
ENERGY: 900000 3.2280 12.6987 5.0525 0.0000 -10656.0606 1442.6124 0.0000 0.0000 1734.7373 -7457.7316 297.9893 -9192.4690 -7352.6774 300.2898 -245.5713 -122.3337 29915.4759 18.8634 87.3205
ENERGY: 1200000 2.5454 13.5195 4.3115 0.0000 -10502.2719 1351.4013 0.0000 0.0000 1714.8585 -7415.6357 294.5745 -9130.4942 -7355.0594 300.8272 -707.4631 -652.9127 30474.5990 -51.5780 8.5920
ENERGY: 1500000 4.4838 15.7389 6.0363 0.0000 -10528.1073 1413.1189 0.0000 0.0000 1754.7075 -7334.0220 301.4197 -9088.7294 -7355.0207 301.0099 61.0746 196.5403 29966.6621 -47.4635 16.7352
TCL: Running FEP window  12: Lambda1 0.4499999999999996 Lambda2 0.39999999999999963 [dLambda -0.04999999999999999]
TCL: Setting parameter firsttimestep to 0
TCL: Setting parameter alchLambda to 0.4499999999999996
Info: NONBONDED TABLE R-SQUARED SPACING: 0.0625
Info: NONBONDED TABLE SIZE: 705 POINTS
TCL: Setting parameter alchLambda2 to 0.39999999999999963
Info: NONBONDED TABLE R-SQUARED SPACING: 0.0625
Info: NONBONDED TABLE SIZE: 705 POINTS
TCL: Running for 1500000 steps
ETITLE: TS BOND ANGLE DIHED IMPRP ELECT VDW BOUNDARY MISC KINETIC TOTAL TEMP POTENTIAL TOTALAVG TEMPAVG PRESSURE GPRESSURE VOLUME PRESSAVG GPRESSAVG
ENERGY: 0 4.4838 15.7389 6.0363 0.0000 -10528.1062 1413.3930 0.0000 0.0000 1753.8255 -7334.6288 301.2682 -9088.4543 -7334.6288 301.2682 98.6128 190.5953 29966.6621 98.6128 190.5953
ENERGY: 300000 2.6505 11.4042 6.5177 0.0000 -10403.9476 1275.4681 0.0000 0.0000 1707.0084 -7400.8986 293.2261 -9107.9070 -7384.2312 299.5089 -1162.9904 -1097.4586 30052.2157 -164.7320 -82.5135
ENERGY: 600000 3.0885 16.0026 4.3818 0.0000 -10505.4738 1419.7505 0.0000 0.0000 1743.4187 -7318.8317 299.4805 -9062.2504 -7366.0389 299.7264 342.5271 298.9095 30126.4904 -285.2971 -222.2872
ENERGY: 900000 1.4946 10.8703 6.9531 0.0000 -10557.6454 1399.4848 0.0000 0.0000 1787.9118 -7350.9308 307.1234 -9138.8426 -7380.0539 299.6347 0.1167 79.2902 29565.4161 -331.9235 -266.0875
ENERGY: 1200000 1.5194 14.6350 5.6878 0.0000 -10439.4449 1358.0033 0.0000 0.0000 1712.9188 -7346.6807 294.2413 -9059.5994 -7364.4200 299.3820 -77.1521 15.7397 29576.0181 -233.7655 -178.9234
ENERGY: 1500000 0.9968 8.2842 4.7148 0.0000 -10486.7550 1328.3237 0.0000 0.0000 1756.1640 -7388.2715 301.6699 -9144.4355 -7368.9768 299.9436 -601.1571 -529.1723 29858.7122 -234.9444 -183.2909
TCL: Running FEP window  13: Lambda1 0.39999999999999963 Lambda2 0.34999999999999964 [dLambda -0.04999999999999999]
TCL: Setting parameter firsttimestep to 0
TCL: Setting parameter alchLambda to 0.39999999999999963
Info: NONBONDED TABLE R-SQUARED SPACING: 0.0625
Info: NONBONDED TABLE SIZE: 705 POINTS
TCL: Setting parameter alchLambda2 to 0.34999999999999964
Info: NONBONDED TABLE R-SQUARED SPACING: 0.0625
Info: NONBONDED TABLE SIZE: 705 POINTS
TCL: Running for 1500000 steps
ETITLE: TS BOND ANGLE DIHED IMPRP ELECT VDW BOUNDARY MISC KINETIC TOTAL TEMP POTENTIAL TOTALAVG TEMPAVG PRESSURE GPRESSURE VOLUME PRESSAVG GPRESSAVG
ENERGY: 0 0.9968 8.2842 4.7148 0.0000 -10486.7549 1329.0797 0.0000 0.0000 1755.2500 -7388.4294 301.5129 -9143.6794 -7388.4294 301.5129 -622.5204 -530.1905 29858.7122 -622.5204 -530.1905
ENERGY: 300000 2.2022 10.3321 7.1973 0.0000 -10533.7727 1383.8620 0.0000 0.0000 1755.9055 -7374.2736 301.6255 -9130.1791 -7359.0635 302.4881 -467.6433 -412.3641 30019.3015 -365.8481 -312.4116
ENERGY: 600000 2.4157 10.5085 4.2869 0.0000 -10503.0495 1429.0061 0.0000 0.0000 1736.2380 -7320.5943 298.2470 -9056.8323 -7347.3827 301.0280 334.4227 357.6874 29748.4555 -136.2640 -79.0187
ENERGY: 900000 2.9480 19.8037 6.7102 0.0000 -10582.1397 1402.3494 0.0000 0.0000 1793.5237 -7356.8048 308.0874 -9150.3285 -7360.9472 301.1433 -134.4829 -60.7060 29663.1314 -20.0430 43.6866
ENERGY: 1200000 2.3206 16.0258 7.4042 0.0000 -10530.1861 1389.0309 0.0000 0.0000 1728.7433 -7386.6613 296.9596 -9115.4046 -7372.2472 300.3410 -137.7537 -51.0581 29557.1693 -130.2158 -63.4732
ENERGY: 1500000 2.4468 16.2052 10.1307 0.0000 -10664.8396 1453.9836 0.0000 0.0000 1809.1889 -7372.8843 310.7784 -9182.0732 -7371.8056 300.9161 558.0880 569.4672 29359.2145 -21.2378 38.6376
TCL: Running FEP window  14: Lambda1 0.34999999999999964 Lambda2 0.29999999999999966 [dLambda -0.04999999999999999]
TCL: Setting parameter firsttimestep to 0
TCL: Setting parameter alchLambda to 0.34999999999999964
Info: NONBONDED TABLE R-SQUARED SPACING: 0.0625
Info: NONBONDED TABLE SIZE: 705 POINTS
TCL: Setting parameter alchLambda2 to 0.29999999999999966
Info: NONBONDED TABLE R-SQUARED SPACING: 0.0625
Info: NONBONDED TABLE SIZE: 705 POINTS
TCL: Running for 1500000 steps
ETITLE: TS BOND ANGLE DIHED IMPRP ELECT VDW BOUNDARY MISC KINETIC TOTAL TEMP POTENTIAL TOTALAVG TEMPAVG PRESSURE GPRESSURE VOLUME PRESSAVG GPRESSAVG
ENERGY: 0 2.4468 16.2052 10.1307 0.0000 -10664.8393 1454.3990 0.0000 0.0000 1808.3289 -7373.3286 310.6307 -9181.6575 -7373.3286 310.6307 484.9912 563.9713 29359.2145 484.9912 563.9713
ENERGY: 300000 3.3663 17.2277 6.9138 0.0000 -10492.4953 1377.7799 0.0000 0.0000 1721.8637 -7365.3439 295.7779 -9087.2076 -7353.7745 300.8071 -413.0026 -368.9784 30167.2540 63.6191 117.9034
ENERGY: 600000 1.2530 9.5114 5.1292 0.0000 -10579.8082 1434.1847 0.0000 0.0000 1742.5103 -7387.2195 299.3245 -9129.7298 -7345.7430 303.1461 -140.4829 -19.4407 30209.1578 -43.8252 35.0365
ENERGY: 900000 4.6808 14.0458 6.3607 0.0000 -10590.8732 1408.4768 0.0000 0.0000 1804.4367 -7352.8724 309.9621 -9157.3090 -7349.5913 302.4109 -187.4301 -66.8850 30026.3794 -74.6909 0.8184
ENERGY: 1200000 2.1554 14.2660 8.7484 0.0000 -10535.5361 1404.0465 0.0000 0.0000 1754.3156 -7352.0043 301.3524 -9106.3199 -7349.2663 301.6699 -221.5966 -163.0076 30030.1406 -109.1915 -41.8375
ENERGY: 1500000 3.4162 8.1530 6.9763 0.0000 -10552.2516 1416.2486 0.0000 0.0000 1777.2648 -7340.1928 305.2945 -9117.4576 -7356.3577 302.1685 -16.1819 -3.0781 30225.9298 -115.4571 -52.9682
TCL: Running FEP window  15: Lambda1 0.29999999999999966 Lambda2 0.24999999999999967 [dLambda -0.04999999999999999]
TCL: Setting parameter firsttimestep to 0
TCL: Setting parameter alchLambda to 0.29999999999999966
Info: NONBONDED TABLE R-SQUARED SPACING: 0.0625
Info: NONBONDED TABLE SIZE: 705 POINTS
TCL: Setting parameter alchLambda2 to 0.24999999999999967
Info: NONBONDED TABLE R-SQUARED SPACING: 0.0625
Info: NONBONDED TABLE SIZE: 705 POINTS
TCL: Running for 1500000 steps
ETITLE: TS BOND ANGLE DIHED IMPRP ELECT VDW BOUNDARY MISC KINETIC TOTAL TEMP POTENTIAL TOTALAVG TEMPAVG PRESSURE GPRESSURE VOLUME PRESSAVG GPRESSAVG
ENERGY: 0 3.4162 8.1530 6.9763 0.0000 -10552.2520 1416.1064 0.0000 0.0000 1776.3736 -7341.2265 305.1415 -9117.6001 -7341.2265 305.1415 -81.5975 -12.0295 30225.9298 -81.5975 -12.0295
ENERGY: 300000 3.2132 15.7629 5.0420 0.0000 -10436.8483 1314.9018 0.0000 0.0000 1674.3436 -7423.5848 287.6150 -9097.9284 -7381.2454 296.9231 -1024.9320 -982.9817 30225.8087 -411.5906 -361.9606
ENERGY: 600000 1.1187 17.8335 8.3127 0.0000 -10527.3679 1425.7003 0.0000 0.0000 1737.2615 -7337.1412 298.4229 -9074.4028 -7363.7796 298.8029 100.5622 154.7510 29920.0797 -113.6542 -58.5397
ENERGY: 900000 1.8866 11.6962 6.3493 0.0000 -10578.7359 1441.4750 0.0000 0.0000 1730.8635 -7386.4655 297.3238 -9117.3289 -7353.1155 298.7910 410.5574 416.0201 29497.8590 -110.8801 -65.0939
ENERGY: 1200000 3.9634 13.3700 7.1503 0.0000 -10400.7538 1367.7009 0.0000 0.0000 1733.7088 -7274.8605 297.8126 -9008.5693 -7347.1112 299.3371 79.2368 176.7512 29652.4536 -87.4196 -36.7310
ENERGY: 1500000 1.7181 14.1550 4.3440 0.0000 -10676.8306 1467.5719 0.0000 0.0000 1727.8114 -7461.2302 296.7995 -9189.0416 -7351.9250 299.6925 247.3746 236.8764 29819.8244 -80.8781 -32.1365
TCL: Running FEP window  16: Lambda1 0.24999999999999967 Lambda2 0.19999999999999968 [dLambda -0.04999999999999999]
TCL: Setting parameter firsttimestep to 0
TCL: Setting parameter alchLambda to 0.24999999999999967
Info: NONBONDED TABLE R-SQUARED SPACING: 0.0625
Info: NONBONDED TABLE SIZE: 705 POINTS
TCL: Setting parameter alchLambda2 to 0.19999999999999968
Info: NONBONDED TABLE R-SQUARED SPACING: 0.0625
Info: NONBONDED TABLE SIZE: 705 POINTS
TCL: Running for 1500000 steps
ETITLE: TS BOND ANGLE DIHED IMPRP ELECT VDW BOUNDARY MISC KINETIC TOTAL TEMP POTENTIAL TOTALAVG TEMPAVG PRESSURE GPRESSURE VOLUME PRESSAVG GPRESSAVG
ENERGY: 0 1.7181 14.1550 4.3440 0.0000 -10676.8324 1467.8674 0.0000 0.0000 1726.9209 -7461.8270 296.6466 -9188.7479 -7461.8270 296.6466 156.1634 228.7991 29819.8244 156.1634 228.7991
ENERGY: 300000 2.6147 14.5797 4.9703 0.0000 -10465.3260 1366.6268 0.0000 0.0000 1739.2413 -7337.2932 298.7629 -9076.5345 -7379.7614 299.4600 -206.0365 -210.0810 29954.1905 -42.0161 19.7026
ENERGY: 600000 4.2897 15.8207 5.3785 0.0000 -10505.7984 1433.9559 0.0000 0.0000 1753.9782 -7292.3754 301.2944 -9046.3536 -7338.2235 300.9681 117.5393 175.1071 30027.0697 -29.6474 32.6069
ENERGY: 900000 4.4015 13.4279 5.8037 0.0000 -10556.8036 1416.6336 0.0000 0.0000 1782.9503 -7333.5865 306.2712 -9116.5369 -7358.5892 299.3212 -18.6514 -1.3034 29767.5329 -3.1526 59.1785
ENERGY: 1200000 2.1747 12.2044 5.6513 0.0000 -10505.3887 1368.1409 0.0000 0.0000 1706.5994 -7410.6180 293.1558 -9117.2174 -7371.8630 298.1776 -492.7216 -454.4480 30253.2999 -149.3738 -88.5622
ENERGY: 1500000 4.3864 9.7027 5.5782 0.0000 -10518.5701 1451.7559 0.0000 0.0000 1767.6075 -7279.5395 303.6356 -9047.1470 -7373.5739 297.5723 588.4669 656.8839 29922.5258 -159.9968 -101.9004
TCL: Running FEP window  17: Lambda1 0.19999999999999968 Lambda2 0.1499999999999997 [dLambda -0.04999999999999999]
TCL: Setting parameter firsttimestep to 0
TCL: Setting parameter alchLambda to 0.19999999999999968
Info: NONBONDED TABLE R-SQUARED SPACING: 0.0625
Info: NONBONDED TABLE SIZE: 705 POINTS
TCL: Setting parameter alchLambda2 to 0.1499999999999997
Info: NONBONDED TABLE R-SQUARED SPACING: 0.0625
Info: NONBONDED TABLE SIZE: 705 POINTS
TCL: Running for 1500000 steps
ETITLE: TS BOND ANGLE DIHED IMPRP ELECT VDW BOUNDARY MISC KINETIC TOTAL TEMP POTENTIAL TOTALAVG TEMPAVG PRESSURE GPRESSURE VOLUME PRESSAVG GPRESSAVG
ENERGY: 0 4.3864 9.7027 5.5782 0.0000 -10518.5704 1450.8579 0.0000 0.0000 1766.7824 -7281.2628 303.4939 -9048.0452 -7281.2628 303.4939 569.9751 644.1331 29922.5258 569.9751 644.1331
ENERGY: 300000 3.0466 14.7814 5.8564 0.0000 -10538.6204 1415.3780 0.0000 0.0000 1748.1444 -7351.4135 300.2923 -9099.5579 -7339.8231 300.2565 39.0304 48.0280 30051.1176 464.6281 513.6523
ENERGY: 600000 3.8967 10.9671 8.4512 0.0000 -10649.2442 1424.4286 0.0000 0.0000 1728.4300 -7473.0706 296.9058 -9201.5006 -7384.7695 298.5206 -200.8666 -129.6166 29663.1341 237.6134 301.6608
ENERGY: 900000 4.8088 12.9585 9.2367 0.0000 -10517.8000 1413.3157 0.0000 0.0000 1784.8851 -7292.5952 306.6035 -9077.4804 -7350.4225 300.4455 225.9757 252.8985 29397.4487 119.4604 180.9088
ENERGY: 1200000 5.9727 8.8517 6.2023 0.0000 -10461.0842 1329.7894 0.0000 0.0000 1722.7716 -7387.4965 295.9338 -9110.2681 -7361.8969 299.3940 -908.0106 -831.8385 30003.4355 28.7497 90.1264
ENERGY: 1500000 3.6311 15.1491 4.8117 0.0000 -10561.0571 1399.2958 0.0000 0.0000 1800.4841 -7337.6853 309.2831 -9138.1694 -7363.8166 299.3024 -317.2402 -200.3077 30289.5811 5.1592 71.9334
TCL: Running FEP window  18: Lambda1 0.1499999999999997 Lambda2 0.09999999999999969 [dLambda -0.05 ]
TCL: Setting parameter firsttimestep to 0
TCL: Setting parameter alchLambda to 0.1499999999999997
Info: NONBONDED TABLE R-SQUARED SPACING: 0.0625
Info: NONBONDED TABLE SIZE: 705 POINTS
TCL: Setting parameter alchLambda2 to 0.09999999999999969
Info: NONBONDED TABLE R-SQUARED SPACING: 0.0625
Info: NONBONDED TABLE SIZE: 705 POINTS
TCL: Running for 1500000 steps
ETITLE: TS BOND ANGLE DIHED IMPRP ELECT VDW BOUNDARY MISC KINETIC TOTAL TEMP POTENTIAL TOTALAVG TEMPAVG PRESSURE GPRESSURE VOLUME PRESSAVG GPRESSAVG
ENERGY: 0 3.6311 15.1491 4.8117 0.0000 -10561.0568 1399.5188 0.0000 0.0000 1799.6259 -7338.3200 309.1357 -9137.9460 -7338.3200 309.1357 -304.2273 -208.0018 30289.5811 -304.2273 -208.0018
ENERGY: 300000 3.7831 11.3909 5.5267 0.0000 -10561.9048 1414.2629 0.0000 0.0000 1764.7877 -7362.1535 303.1512 -9126.9412 -7346.3603 306.0177 -71.2378 9.5416 29643.9674 91.9558 162.2931
ENERGY: 600000 3.0734 13.4974 5.8082 0.0000 -10476.3883 1395.6200 0.0000 0.0000 1757.5577 -7300.8316 301.9093 -9058.3893 -7371.6805 302.1990 -113.8524 -99.0840 30017.4373 190.4275 247.3084
ENERGY: 900000 4.2983 13.4424 11.4766 0.0000 -10594.5756 1357.2671 0.0000 0.0000 1734.0008 -7474.0904 297.8627 -9208.0912 -7389.1301 300.1880 -731.6165 -642.9092 29471.8209 103.6933 165.6693
ENERGY: 1200000 2.8042 12.0078 5.4534 0.0000 -10402.9427 1281.2149 0.0000 0.0000 1794.4468 -7307.0156 308.2460 -9101.4624 -7379.3634 301.5977 -905.3925 -914.3913 29807.0106 51.1501 102.1881
ENERGY: 1500000 2.5625 14.4894 6.0064 0.0000 -10543.2473 1437.8870 0.0000 0.0000 1743.3382 -7338.9637 299.4667 -9082.3019 -7375.6037 301.5432 91.0817 182.9535 30291.8556 32.9832 85.1271
TCL: Running FEP window  19: Lambda1 0.09999999999999969 Lambda2 0.049999999999999684 [dLambda -0.05 ]
TCL: Setting parameter firsttimestep to 0
TCL: Setting parameter alchLambda to 0.09999999999999969
Info: NONBONDED TABLE R-SQUARED SPACING: 0.0625
Info: NONBONDED TABLE SIZE: 705 POINTS
TCL: Setting parameter alchLambda2 to 0.049999999999999684
Info: NONBONDED TABLE R-SQUARED SPACING: 0.0625
Info: NONBONDED TABLE SIZE: 705 POINTS
TCL: Running for 1500000 steps
ETITLE: TS BOND ANGLE DIHED IMPRP ELECT VDW BOUNDARY MISC KINETIC TOTAL TEMP POTENTIAL TOTALAVG TEMPAVG PRESSURE GPRESSURE VOLUME PRESSAVG GPRESSAVG
ENERGY: 0 2.5625 14.4894 6.0064 0.0000 -10543.2474 1437.0914 0.0000 0.0000 1742.4814 -7340.6163 299.3195 -9083.0977 -7340.6163 299.3195 108.4765 174.2560 30291.8556 108.4765 174.2560
ENERGY: 300000 2.6507 12.5973 6.8061 0.0000 -10549.9670 1488.6169 0.0000 0.0000 1743.7047 -7295.5913 299.5297 -9039.2960 -7303.9621 302.8548 829.2440 940.4959 29848.9102 263.3668 339.6689
ENERGY: 600000 2.0979 14.3239 4.7653 0.0000 -10545.0575 1458.8429 0.0000 0.0000 1707.8600 -7357.1675 293.3723 -9065.0276 -7325.2741 301.4258 439.2114 458.5382 30046.3740 423.8371 491.9708
ENERGY: 900000 5.3473 9.8414 5.0356 0.0000 -10413.5221 1345.9135 0.0000 0.0000 1755.1202 -7292.2641 301.4906 -9047.3843 -7327.3707 301.5093 -456.3988 -402.3663 29615.1601 303.3624 368.1383
ENERGY: 1200000 2.4947 17.6113 5.7161 0.0000 -10500.5283 1412.7232 0.0000 0.0000 1801.4965 -7260.4865 309.4570 -9061.9831 -7326.6555 301.9231 250.4387 310.1333 29630.0121 236.6315 306.2907
ENERGY: 1500000 5.6555 6.9857 6.8785 0.0000 -10554.9732 1469.1764 0.0000 0.0000 1712.5772 -7353.6999 294.1826 -9066.2771 -7325.8094 301.1750 626.0940 642.9010 29390.0081 211.8769 283.3087
TCL: Running FEP window  20: Lambda1 0.049999999999999684 Lambda2 0.0    [dLambda -0.049999999999999684]
TCL: Setting parameter firsttimestep to 0
TCL: Setting parameter alchLambda to 0.049999999999999684
Info: NONBONDED TABLE R-SQUARED SPACING: 0.0625
Info: NONBONDED TABLE SIZE: 705 POINTS
TCL: Setting parameter alchLambda2 to 0.0
Info: NONBONDED TABLE R-SQUARED SPACING: 0.0625
Info: NONBONDED TABLE SIZE: 705 POINTS
TCL: Running for 1500000 steps
ETITLE: TS BOND ANGLE DIHED IMPRP ELECT VDW BOUNDARY MISC KINETIC TOTAL TEMP POTENTIAL TOTALAVG TEMPAVG PRESSURE GPRESSURE VOLUME PRESSAVG GPRESSAVG
ENERGY: 0 5.6555 6.9857 6.8785 0.0000 -10554.9726 1467.5658 0.0000 0.0000 1711.7079 -7356.1793 294.0333 -9067.8871 -7356.1793 294.0333 545.2257 632.3593 29390.0081 545.2257 632.3593
ENERGY: 300000 5.5585 11.4522 3.7910 0.0000 -10503.4108 1441.8189 0.0000 0.0000 1809.7611 -7231.0290 310.8767 -9040.7901 -7278.8803 304.4601 219.1650 286.0872 30024.7831 255.4815 324.2629
ENERGY: 600000 2.2402 15.2032 5.3235 0.0000 -10493.6916 1373.3403 0.0000 0.0000 1747.1675 -7350.4169 300.1245 -9097.5844 -7289.3605 302.8007 -402.1553 -375.8233 29971.6378 19.5824 77.5690
ENERGY: 900000 5.6814 13.0813 7.2836 0.0000 -10533.0508 1440.6368 0.0000 0.0000 1761.1359 -7305.2319 302.5240 -9066.3678 -7297.6430 302.4770 215.6017 278.5698 29836.9152 10.3506 73.3396
ENERGY: 1200000 4.9258 15.7007 7.5723 0.0000 -10513.8350 1357.4012 0.0000 0.0000 1766.7430 -7361.4920 303.4871 -9128.2350 -7312.6106 302.4076 -237.9313 -227.9534 29504.7654 27.3603 80.0844
ENERGY: 1500000 2.8070 13.0769 6.4964 0.0000 -10560.0888 1416.9395 0.0000 0.0000 1748.8147 -7371.9543 300.4074 -9120.7690 -7326.6829 302.4692 -378.1580 -324.5147 30202.4943 -2.3971 42.8156
TCL: Exiting due to exit command.
