Info: SIMULATION PARAMETERS:
Info: TIMESTEP               2
Info: NUMBER OF STEPS        0
Info: STEPS PER CYCLE        10
Info: PERIODIC CELL BASIS 1  29.0812 0 0
Info: PERIODIC CELL BASIS 2  0 32.1663 0
Info: PERIODIC CELL BASIS 3  0 0 32.8228
Info: PERIODIC CELL CENTER   0 0 0
Info: WRAPPING WATERS AROUND PERIODIC BOUNDARIES ON OUTPUT.
Info: WRAPPING ALL CLUSTERS AROUND PERIODIC BOUNDARIES ON OUTPUT.
Info: FIRST LDB TIMESTEP     50
Info: LAST LDB TIMESTEP     -1
Info: HOM BACKGROUND SCALING 1
Info: PME BACKGROUND SCALING 1
Info: MIN ATOMS PER PATCH    40
Info: EMPTY PATCH LOAD       40 ATOMS
Info: VELOCITY FILE          mobley_6198745_equil.vel
Info: CENTER OF MASS MOVING INITIALLY? NO
Info: DIELECTRIC             1
Info: EXCLUDE                SCALED ONE-FOUR
Info: 1-4 ELECTROSTATICS SCALED BY 0.833333
Info: MODIFIED 1-4 VDW PARAMETERS WILL BE USED
Info: DCD FILENAME           mobley_6198745_prod.dcd
Info: DCD FREQUENCY          100000
Info: DCD FIRST STEP         100000
Info: DCD FILE WILL CONTAIN UNIT CELL DATA
Info: XST FILENAME           mobley_6198745_prod.xst
Info: XST FREQUENCY          100000
Info: NO VELOCITY DCD OUTPUT
Info: NO FORCE DCD OUTPUT
Info: OUTPUT FILENAME        mobley_6198745_prod
Info: BINARY OUTPUT FILES WILL BE USED
Info: RESTART FILENAME       mobley_6198745_prod.restart
Info: RESTART FREQUENCY      100000
Info: BINARY RESTART FILES WILL BE USED
Info: CUTOFF                 9
Info: PAIRLIST DISTANCE      11
Info: PAIRLIST SHRINK RATE   0.01
Info: PAIRLIST GROW RATE     0.01
Info: PAIRLIST TRIGGER       0.3
Info: PAIRLISTS PER CYCLE    2
Info: PAIRLISTS ENABLED
Info: MARGIN                 2
Info: HYDROGEN GROUP CUTOFF  2.5
Info: PATCH DIMENSION        15.5
Info: ENERGY OUTPUT STEPS    100000
Info: ENERGY EVALUATION STEPS    100000
Info: OUTPUT ENERGY PRECISION 4
Info: CROSSTERM ENERGY INCLUDED IN DIHEDRAL
Info: TIMING OUTPUT STEPS    1000000
Info: PRESSURE OUTPUT STEPS  100000
Info: ALCHEMICAL FEP ON
Info: FEP CURRENT LAMBDA VALUE     1
Info: FEP COMPARISON LAMBDA VALUE  0.95
Info: FEP INTRA-ALCHEMICAL NON-BONDED INTERACTIONS WILL BE RETAINED
Info: FEP INTRA-ALCHEMICAL BONDED INTERACTIONS WILL BE RETAINED
Info: FEP VDW SHIFTING COEFFICIENT 5
Info: FEP ELEC. ACTIVE FOR ANNIHILATED PARTICLES BETWEEN LAMBDA = 0 AND LAMBDA = 0.5
Info: FEP ELEC. ACTIVE FOR EXNIHILATED PARTICLES BETWEEN LAMBDA = 0.5 AND LAMBDA = 1
Info: FEP VDW ACTIVE FOR ANNIHILATED PARTICLES BETWEEN LAMBDA = 0 AND LAMBDA = 1
Info: FEP VDW ACTIVE FOR EXNIHILATED PARTICLES BETWEEN LAMBDA = 0 AND LAMBDA = 1
Info: FEP BOND ACTIVE FOR ANNIHILATED PARTICLES BETWEEN LAMBDA = 1 AND LAMBDA = 1
Info: FEP BOND ACTIVE FOR EXNIHILATED PARTICLES BETWEEN LAMBDA = 0 AND LAMBDA = 0
Info: LANGEVIN DYNAMICS ACTIVE
Info: LANGEVIN TEMPERATURE   300
Info: LANGEVIN USING BBK INTEGRATOR
Info: LANGEVIN DAMPING COEFFICIENT IS 1 INVERSE PS
Info: LANGEVIN DYNAMICS APPLIED TO HYDROGENS
Info: LANGEVIN PISTON PRESSURE CONTROL ACTIVE
Info:        TARGET PRESSURE IS 1.01325 BAR
Info:     OSCILLATION PERIOD IS 50 FS
Info:             DECAY TIME IS 25 FS
Info:     PISTON TEMPERATURE IS 300 K
Info:       PRESSURE CONTROL IS GROUP-BASED
Info:    INITIAL STRAIN RATE IS 0.000351419 0.000351419 0.000351419
Info:       CELL FLUCTUATION IS ISOTROPIC
Info: PARTICLE MESH EWALD (PME) ACTIVE
Info: PME TOLERANCE               1e-06
Info: PME EWALD COEFFICIENT       0.348832
Info: PME INTERPOLATION ORDER     4
Info: PME GRID DIMENSIONS         32 36 36
Info: PME MAXIMUM GRID SPACING    1
Info: PME CALCULATION WILL BE PERFORMED ON GPU
Info: FULL ELECTROSTATIC EVALUATION FREQUENCY      2
Info: USING VERLET I (r-RESPA) MTS SCHEME.
Info: C1 SPLITTING OF LONG RANGE ELECTROSTATICS
Info: PLACING ATOMS IN PATCHES BY HYDROGEN GROUPS
Info: RIGID BONDS TO HYDROGEN : ALL
Info:         ERROR TOLERANCE : 1e-08
Info:          MAX ITERATIONS : 100
Info: RIGID WATER USING SETTLE ALGORITHM
Info: RANDOM NUMBER SEED     1744039292
Info: USE HYDROGEN BONDS?    NO
Info: Using AMBER format force field!
Info: AMBER PARM FILE        mobley_6198745.prmtop
Info: COORDINATE PDB         mobley_6198745.pdb
Info: Exclusions will be read from PARM file!
Info: SCNB (VDW SCALING)     2
Info: USING ARITHMETIC MEAN TO COMBINE L-J SIGMA PARAMETERS
Info: BINARY COORDINATES     mobley_6198745_equil.coor
Info: SUMMARY OF PARAMETERS:
Info: 9 BONDS
Info: 11 ANGLES
Info:   11 HARMONIC
Info:   0 COSINE-BASED
Info: 17 DIHEDRAL
Info: 0 IMPROPER
Info: 0 CROSSTERM
Info: 0 VDW
Info: 36 VDW_PAIRS
Info: 0 NBTHOLE_PAIRS
Info: To read alchdata from file: mobley_6198745.pdb
Info: To read alchflag data from column: 5
Info: STRUCTURE SUMMARY:
Info: 2984 ATOMS
Info: 2983 BONDS
Info: 48 ANGLES
Info: 93 DIHEDRALS
Info: 0 IMPROPERS
Info: 0 CROSSTERMS
Info: 3082 EXCLUSIONS
Info: 2969 RIGID BONDS
Info: ALCH: 0 ATOMS TO DISAPPEAR IN FINAL STATE
Info: ALCH: 29 ATOMS TO APPEAR IN FINAL STATE
Info: 5983 DEGREES OF FREEDOM
Info: 1000 HYDROGEN GROUPS
Info: 4 ATOMS IN LARGEST HYDROGEN GROUP
Info: 1000 MIGRATION GROUPS
Info: 4 ATOMS IN LARGEST MIGRATION GROUP
Info: TOTAL MASS = 17964 amu
Info: TOTAL CHARGE = 0.000199988 e
Info: MASS DENSITY = 0.971567 g/cm^3
Info: ATOM DENSITY = 0.0971874 atoms/A^3
Info: ADDED 0 IMPLICIT EXCLUSIONS
Info: NONBONDED TABLE R-SQUARED SPACING: 0.0625
Info: NONBONDED TABLE SIZE: 705 POINTS
Info: REMOVING COM VELOCITY -0.17603 -0.108139 -0.0640899
Info: Use 3D box decompostion in PME FFT.
Info: Updated CUDA force table with 4096 elements.
Info: Updated CUDA LJ table with 8 x 8 elements.
Info: Found 30 unique exclusion lists needing 108 bytes
TCL: Running for 1500000 steps
ETITLE: TS BOND ANGLE DIHED IMPRP ELECT VDW BOUNDARY MISC KINETIC TOTAL TEMP POTENTIAL TOTALAVG TEMPAVG PRESSURE GPRESSURE VOLUME PRESSAVG GPRESSAVG
ENERGY: 0 4.1397 17.6436 18.4708 0.0000 -10876.0917 1485.2407 0.0000 0.0000 1805.9630 -7544.6338 303.7947 -9350.5968 -7544.6338 303.7947 403.9923 489.4816 30703.5605 403.9923 489.4816
ENERGY: 300000 3.5320 9.5139 20.4573 0.0000 -10944.7385 1540.3550 0.0000 0.0000 1789.3857 -7581.4945 301.0061 -9370.8803 -7604.3500 300.0976 869.7377 894.7392 30582.7956 656.9920 710.7606
ENERGY: 600000 3.0281 11.2291 16.9477 0.0000 -10882.5207 1438.8450 0.0000 0.0000 1785.2296 -7627.2412 300.3070 -9412.4708 -7620.6848 299.2915 -325.5622 -221.6030 31190.4601 397.5182 467.3193
ENERGY: 900000 9.1869 11.7602 23.7842 0.0000 -10778.3752 1343.0701 0.0000 0.0000 1799.9229 -7590.6509 302.7787 -9390.5738 -7602.9168 300.3223 -962.1476 -899.2319 30923.6091 35.4091 110.1329
ENERGY: 1200000 3.5919 14.7043 20.5064 0.0000 -10542.1327 1328.4502 0.0000 0.0000 1795.2775 -7379.6024 301.9972 -9174.8799 -7573.3230 301.2806 -405.3379 -289.1825 31371.9955 28.4164 103.5973
ENERGY: 1500000 6.7613 7.0505 20.6165 0.0000 -10801.2638 1406.8680 0.0000 0.0000 1808.4457 -7551.5218 304.2124 -9359.9675 -7570.9053 301.2873 -376.4932 -289.5496 30907.2720 8.9997 85.3620
TCL: Running FEP window   2: Lambda1 0.95   Lambda2 0.8999999999999999 [dLambda -0.050000000000000044]
TCL: Setting parameter firsttimestep to 0
TCL: Setting parameter alchLambda to 0.95
Info: NONBONDED TABLE R-SQUARED SPACING: 0.0625
Info: NONBONDED TABLE SIZE: 705 POINTS
TCL: Setting parameter alchLambda2 to 0.8999999999999999
Info: NONBONDED TABLE R-SQUARED SPACING: 0.0625
Info: NONBONDED TABLE SIZE: 705 POINTS
TCL: Running for 1500000 steps
ETITLE: TS BOND ANGLE DIHED IMPRP ELECT VDW BOUNDARY MISC KINETIC TOTAL TEMP POTENTIAL TOTALAVG TEMPAVG PRESSURE GPRESSURE VOLUME PRESSAVG GPRESSAVG
ENERGY: 0 6.7613 7.0505 20.6165 0.0000 -10797.5333 1406.8402 0.0000 0.0000 1807.5548 -7548.7100 304.0625 -9356.2648 -7548.7100 304.0625 -392.8402 -302.1290 30907.2720 -392.8402 -302.1290
ENERGY: 300000 5.1331 9.4593 22.0362 0.0000 -10864.3734 1438.4044 0.0000 0.0000 1819.6486 -7569.6917 306.0969 -9389.3403 -7578.7788 303.3612 51.8176 110.5513 30448.1693 -454.4312 -358.7100
ENERGY: 600000 1.4607 14.3766 18.5766 0.0000 -10879.2538 1505.4957 0.0000 0.0000 1771.4857 -7567.8585 297.9950 -9339.3443 -7568.1420 301.0671 705.7641 802.4109 30350.3664 -170.5274 -84.3820
ENERGY: 900000 7.4793 9.2226 22.2822 0.0000 -10764.9465 1334.1063 0.0000 0.0000 1754.9821 -7636.8741 295.2188 -9391.8562 -7581.2641 301.6676 -912.8778 -854.9155 30659.6986 -134.8960 -69.3099
ENERGY: 1200000 3.3378 13.1014 20.8544 0.0000 -10925.4939 1504.1806 0.0000 0.0000 1722.4179 -7661.6017 289.7410 -9384.0197 -7589.2402 300.6670 430.2022 499.5804 30834.6984 -32.5237 33.8530
ENERGY: 1500000 4.6028 11.8796 17.2933 0.0000 -10869.1016 1496.2203 0.0000 0.0000 1807.8168 -7531.2888 304.1066 -9339.1056 -7583.6484 300.8314 504.8962 611.8627 30465.7202 -69.4158 -1.8391
TCL: Running FEP window   3: Lambda1 0.8999999999999999 Lambda2 0.8499999999999999 [dLambda -0.050000000000000044]
TCL: Setting parameter firsttimestep to 0
TCL: Setting parameter alchLambda to 0.8999999999999999
Info: NONBONDED TABLE R-SQUARED SPACING: 0.0625
Info: NONBONDED TABLE SIZE: 705 POINTS
TCL: Setting parameter alchLambda2 to 0.8499999999999999
Info: NONBONDED TABLE R-SQUARED SPACING: 0.0625
Info: NONBONDED TABLE SIZE: 705 POINTS
TCL: Running for 1500000 steps
ETITLE: TS BOND ANGLE DIHED IMPRP ELECT VDW BOUNDARY MISC KINETIC TOTAL TEMP POTENTIAL TOTALAVG TEMPAVG PRESSURE GPRESSURE VOLUME PRESSAVG GPRESSAVG
ENERGY: 0 4.6028 11.8796 17.2933 0.0000 -10866.0684 1494.6253 0.0000 0.0000 1806.9148 -7530.7525 303.9548 -9337.6673 -7530.7525 303.9548 487.2268 575.4302 30465.7202 487.2268 575.4302
ENERGY: 300000 3.2573 15.8059 20.0379 0.0000 -10868.8451 1524.9501 0.0000 0.0000 1832.2166 -7472.5772 308.2110 -9304.7938 -7543.3382 302.9457 1173.7806 1184.3776 30416.8056 468.2981 532.6755
ENERGY: 600000 2.0037 14.3945 18.2034 0.0000 -10733.9520 1402.1122 0.0000 0.0000 1756.6229 -7540.6153 295.4949 -9297.2382 -7544.5802 301.4843 -67.3702 -16.9913 30784.5568 295.3992 359.0913
ENERGY: 900000 4.5838 10.9669 16.5081 0.0000 -10948.4533 1497.4690 0.0000 0.0000 1772.0625 -7646.8630 298.0921 -9418.9255 -7559.4129 300.9852 144.6665 246.3713 30668.0049 225.6959 288.0072
ENERGY: 1200000 4.3441 9.1515 18.5868 0.0000 -11025.3555 1543.2456 0.0000 0.0000 1763.4590 -7686.5685 296.6448 -9450.0275 -7573.8458 299.5163 677.8419 716.3433 30248.2779 218.2308 279.9373
ENERGY: 1500000 6.0737 14.6718 20.9092 0.0000 -10843.6618 1447.5324 0.0000 0.0000 1855.9364 -7498.5383 312.2011 -9354.4747 -7571.7331 300.5565 214.5330 270.8329 30824.1040 143.1654 204.6003
TCL: Running FEP window   4: Lambda1 0.8499999999999999 Lambda2 0.7999999999999998 [dLambda -0.050000000000000044]
TCL: Setting parameter firsttimestep to 0
TCL: Setting parameter alchLambda to 0.8499999999999999
Info: NONBONDED TABLE R-SQUARED SPACING: 0.0625
Info: NONBONDED TABLE SIZE: 705 POINTS
TCL: Setting parameter alchLambda2 to 0.7999999999999998
Info: NONBONDED TABLE R-SQUARED SPACING: 0.0625
Info: NONBONDED TABLE SIZE: 705 POINTS
TCL: Running for 1500000 steps
ETITLE: TS BOND ANGLE DIHED IMPRP ELECT VDW BOUNDARY MISC KINETIC TOTAL TEMP POTENTIAL TOTALAVG TEMPAVG PRESSURE GPRESSURE VOLUME PRESSAVG GPRESSAVG
ENERGY: 0 6.0737 14.6718 20.9092 0.0000 -10839.6629 1446.4803 0.0000 0.0000 1855.0451 -7496.4828 312.0512 -9351.5278 -7496.4828 312.0512 163.5459 247.6344 30824.1040 163.5459 247.6344
ENERGY: 300000 6.3412 8.3278 17.2157 0.0000 -10910.5608 1450.4798 0.0000 0.0000 1798.3593 -7629.8369 302.5157 -9428.1963 -7601.7091 304.3642 278.5503 391.0237 29929.2880 -167.2691 -79.8543
ENERGY: 600000 4.9089 17.8731 16.1363 0.0000 -10979.4323 1485.6646 0.0000 0.0000 1830.4824 -7624.3670 307.9193 -9454.8493 -7572.6668 306.8594 650.6125 690.9512 30034.7117 17.7660 81.4490
ENERGY: 900000 6.3947 7.6752 16.4993 0.0000 -10946.3650 1480.0799 0.0000 0.0000 1837.2133 -7598.5027 309.0516 -9435.7159 -7570.5660 306.2710 233.9868 331.6982 30311.8994 60.6481 125.4224
ENERGY: 1200000 4.0260 15.2478 18.2099 0.0000 -10700.3660 1354.3631 0.0000 0.0000 1774.8220 -7533.6972 298.5563 -9308.5192 -7575.8580 305.1359 -664.2468 -575.0591 30659.2982 26.2745 88.2359
ENERGY: 1500000 2.6176 11.6249 19.8738 0.0000 -10859.2127 1433.2876 0.0000 0.0000 1773.8652 -7617.9436 298.3953 -9391.8088 -7576.3568 304.5273 -96.7087 1.3729 30456.4127 -20.1802 46.6423
TCL: Running FEP window   5: Lambda1 0.7999999999999998 Lambda2 0.7499999999999998 [dLambda -0.050000000000000044]
TCL: Setting parameter firsttimestep to 0
TCL: Setting parameter alchLambda to 0.7999999999999998
Info: NONBONDED TABLE R-SQUARED SPACING: 0.0625
Info: NONBONDED TABLE SIZE: 705 POINTS
TCL: Setting parameter alchLambda2 to 0.7499999999999998
Info: NONBONDED TABLE R-SQUARED SPACING: 0.0625
Info: NONBONDED TABLE SIZE: 705 POINTS
TCL: Running for 1500000 steps
ETITLE: TS BOND ANGLE DIHED IMPRP ELECT VDW BOUNDARY MISC KINETIC TOTAL TEMP POTENTIAL TOTALAVG TEMPAVG PRESSURE GPRESSURE VOLUME PRESSAVG GPRESSAVG
ENERGY: 0 2.6176 11.6249 19.8738 0.0000 -10855.9688 1433.0660 0.0000 0.0000 1772.9768 -7615.8096 298.2459 -9388.7865 -7615.8096 298.2459 -100.0574 -13.4669 30456.4127 -100.0574 -13.4669
ENERGY: 300000 5.4352 11.9051 18.3739 0.0000 -10886.4567 1482.1652 0.0000 0.0000 1799.7304 -7568.8470 302.7463 -9368.5774 -7586.1556 301.8238 357.6830 430.3275 30207.7835 57.1680 111.1160
ENERGY: 600000 5.8038 15.7053 19.0971 0.0000 -10843.0513 1433.6615 0.0000 0.0000 1765.9602 -7602.8233 297.0656 -9368.7835 -7601.6942 297.3598 1.8218 54.1547 30538.7406 -16.8817 28.3628
ENERGY: 900000 3.6968 12.0679 17.7416 0.0000 -10849.0882 1449.0910 0.0000 0.0000 1790.7727 -7575.7182 301.2395 -9366.4909 -7591.6814 299.0814 70.6367 111.3039 30837.9477 -37.0939 2.9019
ENERGY: 1200000 6.4958 18.1947 17.8846 0.0000 -11002.1249 1526.5652 0.0000 0.0000 1778.7944 -7654.1902 299.2245 -9432.9846 -7587.7828 299.8874 217.5019 311.5286 30760.9317 -182.8547 -140.5379
ENERGY: 1500000 4.8701 20.5152 21.7572 0.0000 -10846.0364 1460.1854 0.0000 0.0000 1782.4251 -7556.2835 299.8352 -9338.7086 -7590.4244 299.2882 174.8241 234.5651 30819.4950 -156.2619 -109.8362
TCL: Running FEP window   6: Lambda1 0.7499999999999998 Lambda2 0.6999999999999997 [dLambda -0.050000000000000044]
TCL: Setting parameter firsttimestep to 0
TCL: Setting parameter alchLambda to 0.7499999999999998
Info: NONBONDED TABLE R-SQUARED SPACING: 0.0625
Info: NONBONDED TABLE SIZE: 705 POINTS
TCL: Setting parameter alchLambda2 to 0.6999999999999997
Info: NONBONDED TABLE R-SQUARED SPACING: 0.0625
Info: NONBONDED TABLE SIZE: 705 POINTS
TCL: Running for 1500000 steps
ETITLE: TS BOND ANGLE DIHED IMPRP ELECT VDW BOUNDARY MISC KINETIC TOTAL TEMP POTENTIAL TOTALAVG TEMPAVG PRESSURE GPRESSURE VOLUME PRESSAVG GPRESSAVG
ENERGY: 0 4.8701 20.5152 21.7572 0.0000 -10843.2863 1459.0671 0.0000 0.0000 1781.5492 -7555.5275 299.6879 -9337.0767 -7555.5275 299.6879 129.1263 208.0692 30819.4950 129.1263 208.0692
ENERGY: 300000 5.6002 13.6228 20.0190 0.0000 -10840.3259 1428.7442 0.0000 0.0000 1774.6094 -7597.7304 298.5205 -9372.3398 -7560.6495 301.6387 -105.5027 -69.8791 30795.6999 -106.1524 -42.7111
ENERGY: 600000 4.6236 12.0486 15.6805 0.0000 -10773.9074 1417.8023 0.0000 0.0000 1854.5220 -7469.2303 311.9632 -9323.7523 -7537.9231 303.2410 -89.8817 23.7409 30600.5117 -201.0281 -132.3274
ENERGY: 900000 3.3413 16.0838 17.3613 0.0000 -10986.5484 1541.6649 0.0000 0.0000 1799.5557 -7608.5415 302.7169 -9408.0972 -7547.3534 302.6796 509.5525 602.1004 31035.8181 -133.7945 -72.9866
ENERGY: 1200000 4.1427 13.1115 19.7612 0.0000 -10803.0619 1441.0098 0.0000 0.0000 1774.4144 -7550.6223 298.4877 -9325.0367 -7552.4097 302.3868 -57.5703 40.7936 31127.1536 -104.3991 -43.9635
ENERGY: 1500000 4.6516 16.8818 20.4418 0.0000 -10694.2199 1398.1075 0.0000 0.0000 1781.2423 -7472.8949 299.6363 -9254.1372 -7568.8643 300.5172 -170.2559 -159.7562 31031.7592 -198.1819 -135.0313
TCL: Running FEP window   7: Lambda1 0.6999999999999997 Lambda2 0.6499999999999997 [dLambda -0.050000000000000044]
TCL: Setting parameter firsttimestep to 0
TCL: Setting parameter alchLambda to 0.6999999999999997
Info: NONBONDED TABLE R-SQUARED SPACING: 0.0625
Info: NONBONDED TABLE SIZE: 705 POINTS
TCL: Setting parameter alchLambda2 to 0.6499999999999997
Info: NONBONDED TABLE R-SQUARED SPACING: 0.0625
Info: NONBONDED TABLE SIZE: 705 POINTS
TCL: Running for 1500000 steps
ETITLE: TS BOND ANGLE DIHED IMPRP ELECT VDW BOUNDARY MISC KINETIC TOTAL TEMP POTENTIAL TOTALAVG TEMPAVG PRESSURE GPRESSURE VOLUME PRESSAVG GPRESSAVG
ENERGY: 0 4.6516 16.8818 20.4418 0.0000 -10691.7187 1398.8019 0.0000 0.0000 1780.3345 -7470.6070 299.4836 -9250.9415 -7470.6070 299.4836 -225.5699 -163.4873 31031.7592 -225.5699 -163.4873
ENERGY: 300000 2.6912 12.4029 19.8129 0.0000 -10667.7901 1327.7682 0.0000 0.0000 1806.5463 -7498.5686 303.8929 -9305.1149 -7548.1471 300.7012 -691.0708 -661.7761 30774.5868 -175.1798 -104.3647
ENERGY: 600000 5.7948 13.9037 17.3531 0.0000 -10856.2352 1489.9002 0.0000 0.0000 1738.1625 -7591.1209 292.3895 -9329.2834 -7561.8512 298.3015 308.2539 353.9989 30893.1853 -80.4925 -23.1271
ENERGY: 900000 3.7447 11.1626 16.8809 0.0000 -10892.1004 1479.7657 0.0000 0.0000 1764.3771 -7616.1694 296.7992 -9380.5465 -7559.4654 298.9401 144.2326 273.3879 30590.3511 44.3565 109.6370
ENERGY: 1200000 4.9410 13.8023 23.8103 0.0000 -10796.0255 1403.0409 0.0000 0.0000 1772.0620 -7578.3689 298.0920 -9350.4310 -7562.5251 299.7616 -463.9454 -386.6732 30959.6444 51.3597 123.5622
ENERGY: 1500000 3.3689 15.6213 19.8667 0.0000 -10783.0628 1435.5287 0.0000 0.0000 1760.9745 -7547.7028 296.2269 -9308.6773 -7568.7094 299.4663 -330.0118 -289.6630 31325.0113 -83.2410 -13.6469
TCL: Running FEP window   8: Lambda1 0.6499999999999997 Lambda2 0.5999999999999996 [dLambda -0.050000000000000044]
TCL: Setting parameter firsttimestep to 0
TCL: Setting parameter alchLambda to 0.6499999999999997
Info: NONBONDED TABLE R-SQUARED SPACING: 0.0625
Info: NONBONDED TABLE SIZE: 705 POINTS
TCL: Setting parameter alchLambda2 to 0.5999999999999996
Info: NONBONDED TABLE R-SQUARED SPACING: 0.0625
Info: NONBONDED TABLE SIZE: 705 POINTS
TCL: Running for 1500000 steps
ETITLE: TS BOND ANGLE DIHED IMPRP ELECT VDW BOUNDARY MISC KINETIC TOTAL TEMP POTENTIAL TOTALAVG TEMPAVG PRESSURE GPRESSURE VOLUME PRESSAVG GPRESSAVG
ENERGY: 0 3.3689 15.6213 19.8667 0.0000 -10780.8877 1435.1299 0.0000 0.0000 1760.1042 -7546.7968 296.0805 -9306.9010 -7546.7968 296.0805 -367.9465 -302.9747 31325.0113 -367.9465 -302.9747
ENERGY: 300000 3.9374 17.7400 15.8015 0.0000 -10715.0231 1387.6243 0.0000 0.0000 1783.3492 -7506.5708 299.9907 -9289.9200 -7543.4411 298.3818 -302.7459 -248.0890 30891.7385 -196.3078 -136.8605
ENERGY: 600000 1.5390 9.7147 15.4746 0.0000 -10963.2022 1493.5023 0.0000 0.0000 1822.4566 -7620.5150 306.5692 -9442.9716 -7568.6236 300.5725 22.2651 118.2391 30847.4756 -2.5727 57.4291
ENERGY: 900000 5.2009 11.1727 17.2221 0.0000 -10815.8966 1433.4691 0.0000 0.0000 1793.2380 -7555.5938 301.6542 -9348.8318 -7573.7339 299.6748 -70.6235 -29.3708 30631.0409 -139.7243 -83.0439
ENERGY: 1200000 3.5022 14.4735 16.6543 0.0000 -10950.6025 1484.3871 0.0000 0.0000 1760.4561 -7671.1293 296.1397 -9431.5854 -7578.9651 299.3826 295.2270 364.8218 30166.6551 -133.6764 -73.2137
ENERGY: 1500000 4.7902 10.6129 16.5512 0.0000 -11021.3843 1565.6572 0.0000 0.0000 1813.6815 -7610.0912 305.0931 -9423.7727 -7579.1744 300.0640 757.4000 857.3132 30342.6844 -16.4249 48.8735
TCL: Running FEP window   9: Lambda1 0.5999999999999996 Lambda2 0.5499999999999996 [dLambda -0.050000000000000044]
TCL: Setting parameter firsttimestep to 0
TCL: Setting parameter alchLambda to 0.5999999999999996
Info: NONBONDED TABLE R-SQUARED SPACING: 0.0625
Info: NONBONDED TABLE SIZE: 705 POINTS
TCL: Setting parameter alchLambda2 to 0.5499999999999996
Info: NONBONDED TABLE R-SQUARED SPACING: 0.0625
Info: NONBONDED TABLE SIZE: 705 POINTS
TCL: Running for 1500000 steps
ETITLE: TS BOND ANGLE DIHED IMPRP ELECT VDW BOUNDARY MISC KINETIC TOTAL TEMP POTENTIAL TOTALAVG TEMPAVG PRESSURE GPRESSURE VOLUME PRESSAVG GPRESSAVG
ENERGY: 0 4.7902 10.6129 16.5512 0.0000 -11018.6889 1565.1074 0.0000 0.0000 1812.7898 -7608.8372 304.9431 -9421.6270 -7608.8372 304.9431 758.7706 844.4233 30342.6844 758.7706 844.4233
ENERGY: 300000 4.2910 16.3199 18.7536 0.0000 -10813.3302 1430.3617 0.0000 0.0000 1791.7339 -7551.8702 301.4011 -9343.6040 -7617.1660 299.6605 -356.2972 -283.8352 30790.5064 344.3587 385.7545
ENERGY: 600000 1.1419 10.1835 17.4886 0.0000 -10698.6689 1396.2723 0.0000 0.0000 1815.3807 -7458.2020 305.3789 -9273.5826 -7573.7989 301.1067 1.9120 54.2333 30528.1485 283.4453 339.0762
ENERGY: 900000 6.1930 9.9352 20.4281 0.0000 -10774.7574 1407.4622 0.0000 0.0000 1770.5852 -7560.1539 297.8435 -9330.7390 -7575.0950 301.9317 -655.5025 -556.5774 31316.0800 203.5541 257.7839
ENERGY: 1200000 3.7116 14.8059 17.9908 0.0000 -10739.4299 1331.0009 0.0000 0.0000 1849.3919 -7522.5289 311.1002 -9371.9207 -7562.8184 303.5511 -980.2314 -919.6676 30835.5170 132.6422 188.0875
ENERGY: 1500000 2.9393 12.5146 18.8413 0.0000 -10746.9197 1433.9610 0.0000 0.0000 1770.7821 -7507.8814 297.8767 -9278.6635 -7559.8796 303.1450 -177.7626 -177.8030 31293.9915 51.3565 105.7061
TCL: Running FEP window  10: Lambda1 0.5499999999999996 Lambda2 0.4999999999999996 [dLambda -0.04999999999999999]
TCL: Setting parameter firsttimestep to 0
TCL: Setting parameter alchLambda to 0.5499999999999996
Info: NONBONDED TABLE R-SQUARED SPACING: 0.0625
Info: NONBONDED TABLE SIZE: 705 POINTS
TCL: Setting parameter alchLambda2 to 0.4999999999999996
Info: NONBONDED TABLE R-SQUARED SPACING: 0.0625
Info: NONBONDED TABLE SIZE: 705 POINTS
TCL: Running for 1500000 steps
ETITLE: TS BOND ANGLE DIHED IMPRP ELECT VDW BOUNDARY MISC KINETIC TOTAL TEMP POTENTIAL TOTALAVG TEMPAVG PRESSURE GPRESSURE VOLUME PRESSAVG GPRESSAVG
ENERGY: 0 2.9393 12.5146 18.8413 0.0000 -10745.5525 1434.3507 0.0000 0.0000 1769.8835 -7507.0230 297.7255 -9276.9066 -7507.0230 297.7255 -262.6617 -185.8120 31293.9915 -262.6617 -185.8120
ENERGY: 300000 1.5732 15.2423 22.5396 0.0000 -10802.8399 1432.8655 0.0000 0.0000 1816.5978 -7514.0216 305.5837 -9330.6193 -7543.1009 302.0865 -64.8405 -7.2020 30578.2943 15.7952 75.6898
ENERGY: 600000 3.0278 11.9508 25.6754 0.0000 -10867.0819 1514.5680 0.0000 0.0000 1842.3060 -7469.5539 309.9083 -9311.8599 -7564.4224 301.4495 850.1803 897.2101 30394.7623 -23.3887 34.8821
ENERGY: 900000 2.4750 10.4007 20.6714 0.0000 -10774.4428 1351.2482 0.0000 0.0000 1767.1731 -7622.4744 297.2696 -9389.6475 -7571.5756 300.7463 -766.2233 -703.0167 30800.0592 -125.4920 -62.2424
ENERGY: 1200000 4.5355 12.4885 18.5673 0.0000 -10946.9265 1427.2779 0.0000 0.0000 1781.2062 -7702.8510 299.6302 -9484.0572 -7585.4490 299.6875 -409.6889 -369.4827 30679.4537 -97.0549 -36.3209
ENERGY: 1500000 4.2381 14.7732 18.9750 0.0000 -10785.4593 1446.0163 0.0000 0.0000 1794.0901 -7507.3667 301.7975 -9301.4567 -7569.4125 300.6322 103.1351 140.9278 30832.6455 -110.8993 -46.0343
TCL: Running FEP window  11: Lambda1 0.4999999999999996 Lambda2 0.4499999999999996 [dLambda -0.04999999999999999]
TCL: Setting parameter firsttimestep to 0
TCL: Setting parameter alchLambda to 0.4999999999999996
Info: NONBONDED TABLE R-SQUARED SPACING: 0.0625
Info: NONBONDED TABLE SIZE: 705 POINTS
TCL: Setting parameter alchLambda2 to 0.4499999999999996
Info: NONBONDED TABLE R-SQUARED SPACING: 0.0625
Info: NONBONDED TABLE SIZE: 705 POINTS
TCL: Running for 1500000 steps
ETITLE: TS BOND ANGLE DIHED IMPRP ELECT VDW BOUNDARY MISC KINETIC TOTAL TEMP POTENTIAL TOTALAVG TEMPAVG PRESSURE GPRESSURE VOLUME PRESSAVG GPRESSAVG
ENERGY: 0 4.2381 14.7732 18.9750 0.0000 -10784.5239 1446.3676 0.0000 0.0000 1793.2289 -7506.9411 301.6526 -9300.1700 -7506.9411 301.6526 50.5442 134.3491 30832.6455 50.5442 134.3491
ENERGY: 300000 6.3889 10.4939 17.5175 0.0000 -10771.8230 1462.2334 0.0000 0.0000 1795.8295 -7479.3598 302.0901 -9275.1894 -7523.3940 297.0190 200.0676 262.2824 30545.3984 48.6245 96.6934
ENERGY: 600000 5.0488 12.4136 19.3442 0.0000 -10847.5318 1429.4293 0.0000 0.0000 1765.6765 -7615.6194 297.0178 -9381.2959 -7557.1524 297.0083 92.4353 103.1597 29958.5417 136.0998 184.4457
ENERGY: 900000 5.1536 10.6396 19.5745 0.0000 -11019.0593 1572.5011 0.0000 0.0000 1747.2053 -7663.9853 293.9106 -9411.1906 -7564.6472 296.4358 778.8822 830.1630 30520.7325 295.5162 340.8213
ENERGY: 1200000 3.9861 10.1336 17.3300 0.0000 -10754.5153 1400.1156 0.0000 0.0000 1815.4853 -7507.4648 305.3965 -9322.9501 -7560.4457 298.1121 -374.9292 -309.0825 30904.9309 249.9733 300.2824
ENERGY: 1500000 2.7543 10.9540 19.1770 0.0000 -10937.9075 1512.3048 0.0000 0.0000 1771.7538 -7620.9636 298.0401 -9392.7174 -7561.5561 297.5362 174.4294 178.5395 30755.9808 213.7811 266.1134
TCL: Running FEP window  12: Lambda1 0.4499999999999996 Lambda2 0.39999999999999963 [dLambda -0.04999999999999999]
TCL: Setting parameter firsttimestep to 0
TCL: Setting parameter alchLambda to 0.4499999999999996
Info: NONBONDED TABLE R-SQUARED SPACING: 0.0625
Info: NONBONDED TABLE SIZE: 705 POINTS
TCL: Setting parameter alchLambda2 to 0.39999999999999963
Info: NONBONDED TABLE R-SQUARED SPACING: 0.0625
Info: NONBONDED TABLE SIZE: 705 POINTS
TCL: Running for 1500000 steps
ETITLE: TS BOND ANGLE DIHED IMPRP ELECT VDW BOUNDARY MISC KINETIC TOTAL TEMP POTENTIAL TOTALAVG TEMPAVG PRESSURE GPRESSURE VOLUME PRESSAVG GPRESSAVG
ENERGY: 0 2.7543 10.9540 19.1770 0.0000 -10937.9076 1512.7618 0.0000 0.0000 1770.8714 -7621.3890 297.8917 -9392.2604 -7621.3890 297.8917 98.6846 173.3696 30755.9808 98.6846 173.3696
ENERGY: 300000 1.7846 13.0098 18.9383 0.0000 -10781.2494 1303.9176 0.0000 0.0000 1778.1217 -7665.4775 299.1113 -9443.5992 -7576.2432 299.2688 -1477.9317 -1374.3950 31103.6325 -289.3471 -229.8921
ENERGY: 600000 5.2226 11.1201 19.4909 0.0000 -10746.0744 1367.6448 0.0000 0.0000 1767.3052 -7575.2908 297.2918 -9342.5960 -7590.4054 298.7194 -559.2233 -515.0821 30601.1881 -152.7038 -86.3617
ENERGY: 900000 7.2997 13.3143 15.8106 0.0000 -10793.6413 1449.1032 0.0000 0.0000 1797.6849 -7510.4286 302.4022 -9308.1135 -7589.2134 297.9020 -43.9162 69.4487 31027.0857 -177.2281 -110.8546
ENERGY: 1200000 7.8047 10.2293 20.7869 0.0000 -10686.5062 1329.4189 0.0000 0.0000 1751.2301 -7567.0364 294.5877 -9318.2664 -7576.2678 298.2078 -916.0813 -935.5094 30595.0853 -269.3185 -207.7575
ENERGY: 1500000 3.7337 14.3371 19.8356 0.0000 -10788.5667 1396.9107 0.0000 0.0000 1769.9105 -7583.8390 297.7301 -9353.7495 -7573.8295 297.8959 -446.4153 -385.8391 30669.8299 -334.4828 -270.7508
TCL: Running FEP window  13: Lambda1 0.39999999999999963 Lambda2 0.34999999999999964 [dLambda -0.04999999999999999]
TCL: Setting parameter firsttimestep to 0
TCL: Setting parameter alchLambda to 0.39999999999999963
Info: NONBONDED TABLE R-SQUARED SPACING: 0.0625
Info: NONBONDED TABLE SIZE: 705 POINTS
TCL: Setting parameter alchLambda2 to 0.34999999999999964
Info: NONBONDED TABLE R-SQUARED SPACING: 0.0625
Info: NONBONDED TABLE SIZE: 705 POINTS
TCL: Running for 1500000 steps
ETITLE: TS BOND ANGLE DIHED IMPRP ELECT VDW BOUNDARY MISC KINETIC TOTAL TEMP POTENTIAL TOTALAVG TEMPAVG PRESSURE GPRESSURE VOLUME PRESSAVG GPRESSAVG
ENERGY: 0 3.7337 14.3371 19.8356 0.0000 -10788.5701 1397.1650 0.0000 0.0000 1769.0100 -7584.4887 297.5786 -9353.4987 -7584.4887 297.5786 -474.0157 -391.3804 30669.8299 -474.0157 -391.3804
ENERGY: 300000 8.8946 11.8281 18.0188 0.0000 -10853.4608 1477.3803 0.0000 0.0000 1718.0915 -7619.2476 289.0132 -9337.3391 -7564.5408 298.6372 34.2846 107.8450 30505.6223 -94.6515 -38.3931
ENERGY: 600000 4.4819 13.2319 19.9601 0.0000 -10784.0905 1390.1561 0.0000 0.0000 1738.7370 -7617.5235 292.4861 -9356.2605 -7582.3743 297.4004 -504.2447 -441.9786 31002.6161 -85.6560 -31.5857
ENERGY: 900000 7.1647 9.3465 16.9674 0.0000 -10831.3487 1469.1185 0.0000 0.0000 1759.4327 -7569.3189 295.9675 -9328.7516 -7571.9783 299.0404 273.6844 292.3407 30484.6436 -26.5627 33.2124
ENERGY: 1200000 2.8221 18.8003 16.9232 0.0000 -10748.1972 1395.5585 0.0000 0.0000 1790.7098 -7523.3833 301.2289 -9314.0931 -7577.1753 298.6439 -494.0690 -365.0669 30985.8553 -115.4466 -56.0437
ENERGY: 1500000 7.3842 17.0323 19.3386 0.0000 -10747.9029 1435.8188 0.0000 0.0000 1795.6168 -7472.7122 302.0543 -9268.3290 -7555.8951 299.3758 -5.0330 4.7978 31208.7502 -16.5357 42.9622
TCL: Running FEP window  14: Lambda1 0.34999999999999964 Lambda2 0.29999999999999966 [dLambda -0.04999999999999999]
TCL: Setting parameter firsttimestep to 0
TCL: Setting parameter alchLambda to 0.34999999999999964
Info: NONBONDED TABLE R-SQUARED SPACING: 0.0625
Info: NONBONDED TABLE SIZE: 705 POINTS
TCL: Setting parameter alchLambda2 to 0.29999999999999966
Info: NONBONDED TABLE R-SQUARED SPACING: 0.0625
Info: NONBONDED TABLE SIZE: 705 POINTS
TCL: Running for 1500000 steps
ETITLE: TS BOND ANGLE DIHED IMPRP ELECT VDW BOUNDARY MISC KINETIC TOTAL TEMP POTENTIAL TOTALAVG TEMPAVG PRESSURE GPRESSURE VOLUME PRESSAVG GPRESSAVG
ENERGY: 0 7.3842 17.0323 19.3386 0.0000 -10747.9033 1436.3912 0.0000 0.0000 1794.6854 -7473.0716 301.8976 -9267.7570 -7473.0716 301.8976 -71.7676 0.7617 31208.7502 -71.7676 0.7617
ENERGY: 300000 5.2633 12.6790 17.1586 0.0000 -10828.5855 1448.6995 0.0000 0.0000 1790.4526 -7554.3325 301.1856 -9344.7851 -7549.1966 298.9563 -231.0728 -139.1983 30809.8502 -264.3063 -179.0272
ENERGY: 600000 6.4139 15.2266 18.7111 0.0000 -10820.9954 1457.9645 0.0000 0.0000 1763.0862 -7559.5930 296.5821 -9322.6793 -7565.8537 299.8025 -244.6175 -212.7122 31266.1161 -336.3179 -263.3923
ENERGY: 900000 6.8742 11.9109 19.7997 0.0000 -10830.0166 1450.2336 0.0000 0.0000 1781.0679 -7560.1302 299.6069 -9341.1981 -7559.4460 299.7554 -59.6541 44.4831 30796.4722 -138.9501 -60.5140
ENERGY: 1200000 4.6658 13.3477 18.0446 0.0000 -10843.0716 1484.3579 0.0000 0.0000 1762.5198 -7560.1357 296.4868 -9322.6555 -7549.9137 300.8541 422.3619 465.6201 30513.4410 -173.5030 -99.0945
ENERGY: 1500000 7.5911 12.8984 19.1902 0.0000 -10882.6898 1510.5134 0.0000 0.0000 1828.4795 -7504.0171 307.5824 -9332.4966 -7553.8633 300.9532 545.1003 607.2952 30339.7655 -152.9028 -85.2163
TCL: Running FEP window  15: Lambda1 0.29999999999999966 Lambda2 0.24999999999999967 [dLambda -0.04999999999999999]
TCL: Setting parameter firsttimestep to 0
TCL: Setting parameter alchLambda to 0.29999999999999966
Info: NONBONDED TABLE R-SQUARED SPACING: 0.0625
Info: NONBONDED TABLE SIZE: 705 POINTS
TCL: Setting parameter alchLambda2 to 0.24999999999999967
Info: NONBONDED TABLE R-SQUARED SPACING: 0.0625
Info: NONBONDED TABLE SIZE: 705 POINTS
TCL: Running for 1500000 steps
ETITLE: TS BOND ANGLE DIHED IMPRP ELECT VDW BOUNDARY MISC KINETIC TOTAL TEMP POTENTIAL TOTALAVG TEMPAVG PRESSURE GPRESSURE VOLUME PRESSAVG GPRESSAVG
ENERGY: 0 7.5911 12.8984 19.1902 0.0000 -10882.6915 1509.7599 0.0000 0.0000 1827.5988 -7505.6531 307.4343 -9333.2519 -7505.6531 307.4343 516.5616 596.3095 30339.7655 516.5616 596.3095
ENERGY: 300000 3.1397 12.8482 17.9251 0.0000 -10856.5221 1435.5442 0.0000 0.0000 1815.8317 -7571.2333 305.4548 -9387.0650 -7543.3404 302.3099 -283.9623 -252.8537 30702.0582 -313.4332 -244.0922
ENERGY: 600000 4.8762 9.7193 17.4309 0.0000 -11023.3992 1576.7176 0.0000 0.0000 1782.1938 -7632.4614 299.7963 -9414.6553 -7572.8755 300.6791 756.8282 837.5934 30547.4669 -200.5168 -139.7344
ENERGY: 900000 3.8813 7.3195 17.3103 0.0000 -10926.1435 1494.0391 0.0000 0.0000 1815.8998 -7587.6935 305.4663 -9403.5932 -7558.6350 301.3181 178.6592 226.1845 30171.7328 -58.9341 -6.0108
ENERGY: 1200000 1.9483 14.7466 18.3489 0.0000 -10951.1790 1485.0207 0.0000 0.0000 1782.8239 -7648.2906 299.9023 -9431.1144 -7565.6610 300.9214 206.0537 297.5576 30301.1274 -107.1170 -47.1327
ENERGY: 1500000 4.5333 12.4034 21.0184 0.0000 -10665.4812 1320.2474 0.0000 0.0000 1728.9112 -7578.3674 290.8333 -9307.2786 -7571.5281 299.5260 -1033.7537 -959.6518 30759.8595 -139.6972 -75.7274
TCL: Running FEP window  16: Lambda1 0.24999999999999967 Lambda2 0.19999999999999968 [dLambda -0.04999999999999999]
TCL: Setting parameter firsttimestep to 0
TCL: Setting parameter alchLambda to 0.24999999999999967
Info: NONBONDED TABLE R-SQUARED SPACING: 0.0625
Info: NONBONDED TABLE SIZE: 705 POINTS
TCL: Setting parameter alchLambda2 to 0.19999999999999968
Info: NONBONDED TABLE R-SQUARED SPACING: 0.0625
Info: NONBONDED TABLE SIZE: 705 POINTS
TCL: Running for 1500000 steps
ETITLE: TS BOND ANGLE DIHED IMPRP ELECT VDW BOUNDARY MISC KINETIC TOTAL TEMP POTENTIAL TOTALAVG TEMPAVG PRESSURE GPRESSURE VOLUME PRESSAVG GPRESSAVG
ENERGY: 0 4.5333 12.4034 21.0184 0.0000 -10665.4813 1320.2972 0.0000 0.0000 1728.0583 -7579.1707 290.6898 -9307.2290 -7579.1707 290.6898 -1063.2278 -970.0510 30759.8595 -1063.2278 -970.0510
ENERGY: 300000 7.0904 12.3548 17.4571 0.0000 -10821.9346 1461.0830 0.0000 0.0000 1824.6060 -7499.3434 306.9308 -9323.9493 -7511.1307 297.6104 700.3068 713.5110 30179.6417 38.8269 89.8296
ENERGY: 600000 5.5289 14.1844 18.6463 0.0000 -10783.3094 1347.7956 0.0000 0.0000 1721.1472 -7676.0070 289.5272 -9397.1542 -7556.5546 295.7583 -1039.4852 -1003.5984 30419.2429 -244.4557 -194.5804
ENERGY: 900000 2.8894 13.1774 16.9668 0.0000 -10941.1860 1474.3919 0.0000 0.0000 1724.4904 -7709.2701 290.0896 -9433.7605 -7572.0911 295.5097 -48.5824 -48.0162 30344.4789 -184.9869 -142.8401
ENERGY: 1200000 3.9947 15.9640 15.2796 0.0000 -10846.3678 1400.9279 0.0000 0.0000 1764.1815 -7646.0200 296.7663 -9410.2015 -7581.2976 296.3802 -412.6533 -381.2626 30363.5806 -192.6879 -154.7343
ENERGY: 1500000 4.3600 14.0074 16.9659 0.0000 -10880.3373 1437.3664 0.0000 0.0000 1786.9970 -7620.6406 300.6043 -9407.6376 -7586.2087 296.7821 -353.6281 -306.4509 30895.9183 -199.7335 -160.0660
TCL: Running FEP window  17: Lambda1 0.19999999999999968 Lambda2 0.1499999999999997 [dLambda -0.04999999999999999]
TCL: Setting parameter firsttimestep to 0
TCL: Setting parameter alchLambda to 0.19999999999999968
Info: NONBONDED TABLE R-SQUARED SPACING: 0.0625
Info: NONBONDED TABLE SIZE: 705 POINTS
TCL: Setting parameter alchLambda2 to 0.1499999999999997
Info: NONBONDED TABLE R-SQUARED SPACING: 0.0625
Info: NONBONDED TABLE SIZE: 705 POINTS
TCL: Running for 1500000 steps
ETITLE: TS BOND ANGLE DIHED IMPRP ELECT VDW BOUNDARY MISC KINETIC TOTAL TEMP POTENTIAL TOTALAVG TEMPAVG PRESSURE GPRESSURE VOLUME PRESSAVG GPRESSAVG
ENERGY: 0 4.3600 14.0074 16.9659 0.0000 -10880.3383 1437.9390 0.0000 0.0000 1786.1140 -7620.9521 300.4558 -9407.0661 -7620.9521 300.4558 -386.7069 -309.9468 30895.9183 -386.7069 -309.9468
ENERGY: 300000 5.2503 16.4932 18.8776 0.0000 -10740.8673 1373.2259 0.0000 0.0000 1763.0022 -7564.0180 296.5680 -9327.0202 -7563.3986 298.7216 -527.6257 -419.5140 30490.3468 -178.0948 -83.5015
ENERGY: 600000 8.4147 9.7228 17.8972 0.0000 -10927.1631 1520.9328 0.0000 0.0000 1755.6652 -7614.5304 295.3338 -9370.1956 -7561.9615 299.0447 428.8860 431.4034 30647.5280 -122.0450 -46.5203
ENERGY: 900000 3.8081 9.7136 17.5857 0.0000 -10732.6421 1418.9536 0.0000 0.0000 1793.7453 -7488.8358 301.7395 -9282.5811 -7559.6607 299.1998 103.9572 188.0897 30328.3763 3.7968 84.6236
ENERGY: 1200000 3.0056 12.7471 15.2349 0.0000 -10795.4931 1492.2867 0.0000 0.0000 1807.1263 -7465.0924 303.9904 -9272.2187 -7557.5396 298.9555 411.8022 478.2192 30834.0709 -47.7976 32.3722
ENERGY: 1500000 6.3545 15.9180 17.8848 0.0000 -10795.8358 1388.1118 0.0000 0.0000 1798.1740 -7569.3927 302.4845 -9367.5667 -7556.0276 299.1975 -912.9193 -788.9592 31080.0635 -40.8808 41.0341
TCL: Running FEP window  18: Lambda1 0.1499999999999997 Lambda2 0.09999999999999969 [dLambda -0.05 ]
TCL: Setting parameter firsttimestep to 0
TCL: Setting parameter alchLambda to 0.1499999999999997
Info: NONBONDED TABLE R-SQUARED SPACING: 0.0625
Info: NONBONDED TABLE SIZE: 705 POINTS
TCL: Setting parameter alchLambda2 to 0.09999999999999969
Info: NONBONDED TABLE R-SQUARED SPACING: 0.0625
Info: NONBONDED TABLE SIZE: 705 POINTS
TCL: Running for 1500000 steps
ETITLE: TS BOND ANGLE DIHED IMPRP ELECT VDW BOUNDARY MISC KINETIC TOTAL TEMP POTENTIAL TOTALAVG TEMPAVG PRESSURE GPRESSURE VOLUME PRESSAVG GPRESSAVG
ENERGY: 0 6.3545 15.9180 17.8848 0.0000 -10795.8372 1388.2093 0.0000 0.0000 1797.2641 -7570.2065 302.3314 -9367.4706 -7570.2065 302.3314 -883.1173 -794.4751 31080.0635 -883.1173 -794.4751
ENERGY: 300000 9.3203 17.8536 20.0103 0.0000 -10900.4606 1530.0693 0.0000 0.0000 1815.7233 -7507.4838 305.4366 -9323.2071 -7565.1849 298.9747 805.4173 893.9064 30459.5256 -236.6568 -173.4663
ENERGY: 600000 5.6550 18.3344 16.3345 0.0000 -10768.7712 1375.7425 0.0000 0.0000 1845.1507 -7507.5541 310.3868 -9352.7048 -7552.3574 300.8679 -885.7343 -796.4242 30861.5788 -321.5251 -258.1780
ENERGY: 900000 3.7664 17.1657 16.5929 0.0000 -10936.7534 1475.1855 0.0000 0.0000 1745.9204 -7678.1225 293.6945 -9424.0428 -7552.8655 299.9130 -130.9460 -59.7542 30432.2456 -247.1464 -187.5570
ENERGY: 1200000 4.7506 12.4477 17.7781 0.0000 -10704.8046 1417.3543 0.0000 0.0000 1809.8401 -7442.6338 304.4469 -9252.4739 -7545.7354 299.8492 128.6640 137.7779 30664.3731 -210.0147 -148.4036
ENERGY: 1500000 2.0101 13.2764 22.4090 0.0000 -10872.8893 1449.2951 0.0000 0.0000 1824.3884 -7561.5103 306.8942 -9385.8988 -7545.2813 300.2768 -147.0474 -86.5892 30385.9168 -190.1166 -128.4759
TCL: Running FEP window  19: Lambda1 0.09999999999999969 Lambda2 0.049999999999999684 [dLambda -0.05 ]
TCL: Setting parameter firsttimestep to 0
TCL: Setting parameter alchLambda to 0.09999999999999969
Info: NONBONDED TABLE R-SQUARED SPACING: 0.0625
Info: NONBONDED TABLE SIZE: 705 POINTS
TCL: Setting parameter alchLambda2 to 0.049999999999999684
Info: NONBONDED TABLE R-SQUARED SPACING: 0.0625
Info: NONBONDED TABLE SIZE: 705 POINTS
TCL: Running for 1500000 steps
ETITLE: TS BOND ANGLE DIHED IMPRP ELECT VDW BOUNDARY MISC KINETIC TOTAL TEMP POTENTIAL TOTALAVG TEMPAVG PRESSURE GPRESSURE VOLUME PRESSAVG GPRESSAVG
ENERGY: 0 2.0101 13.2764 22.4090 0.0000 -10872.8899 1449.5654 0.0000 0.0000 1823.4601 -7562.1689 306.7380 -9385.6290 -7562.1689 306.7380 -172.9752 -90.9493 30385.9168 -172.9752 -90.9493
ENERGY: 300000 4.3699 11.1464 18.3338 0.0000 -10909.3597 1476.5053 0.0000 0.0000 1742.0417 -7656.9626 293.0420 -9399.0043 -7609.7800 302.0802 218.7569 306.4188 29963.8198 -47.9044 21.0230
ENERGY: 600000 6.3590 13.9409 17.5142 0.0000 -11041.7901 1551.5232 0.0000 0.0000 1707.8792 -7744.5736 287.2953 -9452.4528 -7626.1130 300.6737 780.0870 845.6522 29796.2827 149.2479 218.2940
ENERGY: 900000 5.3165 15.1806 21.7222 0.0000 -10807.0192 1406.2003 0.0000 0.0000 1816.9988 -7541.6008 305.6511 -9358.5996 -7599.6199 301.3264 -286.0651 -190.8614 30196.5307 249.5500 323.1915
ENERGY: 1200000 2.2615 16.9683 18.9923 0.0000 -10744.1509 1388.9257 0.0000 0.0000 1803.1666 -7513.8366 303.3243 -9317.0032 -7591.0351 300.3081 -251.7064 -213.9188 30392.6871 227.6957 300.9977
ENERGY: 1500000 4.8061 12.6219 18.3427 0.0000 -10894.1843 1494.3094 0.0000 0.0000 1751.7882 -7612.3160 294.6816 -9364.1042 -7586.1190 300.2693 287.0374 299.6254 30340.7192 279.0371 348.2227
TCL: Running FEP window  20: Lambda1 0.049999999999999684 Lambda2 0.0    [dLambda -0.049999999999999684]
TCL: Setting parameter firsttimestep to 0
TCL: Setting parameter alchLambda to 0.049999999999999684
Info: NONBONDED TABLE R-SQUARED SPACING: 0.0625
Info: NONBONDED TABLE SIZE: 705 POINTS
TCL: Setting parameter alchLambda2 to 0.0
Info: NONBONDED TABLE R-SQUARED SPACING: 0.0625
Info: NONBONDED TABLE SIZE: 705 POINTS
TCL: Running for 1500000 steps
ETITLE: TS BOND ANGLE DIHED IMPRP ELECT VDW BOUNDARY MISC KINETIC TOTAL TEMP POTENTIAL TOTALAVG TEMPAVG PRESSURE GPRESSURE VOLUME PRESSAVG GPRESSAVG
ENERGY: 0 4.8061 12.6219 18.3427 0.0000 -10894.1863 1494.4059 0.0000 0.0000 1750.9037 -7613.1061 294.5328 -9364.0098 -7613.1061 294.5328 203.7168 291.7283 30340.7192 203.7168 291.7283
ENERGY: 300000 4.0636 11.7769 19.2876 0.0000 -10830.7589 1443.9129 0.0000 0.0000 1813.2484 -7538.4697 305.0203 -9351.7180 -7600.7270 296.5414 -36.6363 -6.1053 30500.3899 28.8243 96.9127
ENERGY: 600000 4.9987 11.8435 16.2401 0.0000 -10982.3493 1513.9719 0.0000 0.0000 1766.4611 -7668.8340 297.1498 -9435.2950 -7616.9293 295.9187 746.4590 773.5808 29743.1810 25.6221 80.5897
ENERGY: 900000 4.0921 9.4355 18.9066 0.0000 -10967.1303 1603.3564 0.0000 0.0000 1770.8805 -7560.4593 297.8932 -9331.3397 -7608.7994 297.4358 1252.0224 1328.6793 30361.8804 91.7326 149.2636
ENERGY: 1200000 3.7503 13.2433 17.1287 0.0000 -10825.8811 1430.1018 0.0000 0.0000 1811.9534 -7549.7036 304.8024 -9361.6569 -7607.3554 297.9786 2.2733 35.3856 30398.9705 118.7413 175.2252
ENERGY: 1500000 3.5547 11.1061 17.8045 0.0000 -10753.0889 1433.8388 0.0000 0.0000 1786.6818 -7500.1030 300.5513 -9286.7848 -7591.4000 298.2310 -5.3129 119.6796 30426.7995 120.9360 182.0149
TCL: Exiting due to exit command.
