Info: SIMULATION PARAMETERS:
Info: TIMESTEP               2
Info: NUMBER OF STEPS        0
Info: STEPS PER CYCLE        10
Info: PERIODIC CELL BASIS 1  28.6417 0 0
Info: PERIODIC CELL BASIS 2  0 31.761 0
Info: PERIODIC CELL BASIS 3  0 0 33.4113
Info: PERIODIC CELL CENTER   0 0 0
Info: WRAPPING WATERS AROUND PERIODIC BOUNDARIES ON OUTPUT.
Info: WRAPPING ALL CLUSTERS AROUND PERIODIC BOUNDARIES ON OUTPUT.
Info: FIRST LDB TIMESTEP     50
Info: LAST LDB TIMESTEP     -1
Info: HOM BACKGROUND SCALING 1
Info: PME BACKGROUND SCALING 1
Info: MIN ATOMS PER PATCH    40
Info: EMPTY PATCH LOAD       40 ATOMS
Info: VELOCITY FILE          mobley_6248915_equil.vel
Info: CENTER OF MASS MOVING INITIALLY? NO
Info: DIELECTRIC             1
Info: EXCLUDE                SCALED ONE-FOUR
Info: 1-4 ELECTROSTATICS SCALED BY 0.833333
Info: MODIFIED 1-4 VDW PARAMETERS WILL BE USED
Info: DCD FILENAME           mobley_6248915_prod.dcd
Info: DCD FREQUENCY          100000
Info: DCD FIRST STEP         100000
Info: DCD FILE WILL CONTAIN UNIT CELL DATA
Info: XST FILENAME           mobley_6248915_prod.xst
Info: XST FREQUENCY          100000
Info: NO VELOCITY DCD OUTPUT
Info: NO FORCE DCD OUTPUT
Info: OUTPUT FILENAME        mobley_6248915_prod
Info: BINARY OUTPUT FILES WILL BE USED
Info: RESTART FILENAME       mobley_6248915_prod.restart
Info: RESTART FREQUENCY      100000
Info: BINARY RESTART FILES WILL BE USED
Info: CUTOFF                 9
Info: PAIRLIST DISTANCE      11
Info: PAIRLIST SHRINK RATE   0.01
Info: PAIRLIST GROW RATE     0.01
Info: PAIRLIST TRIGGER       0.3
Info: PAIRLISTS PER CYCLE    2
Info: PAIRLISTS ENABLED
Info: MARGIN                 2
Info: HYDROGEN GROUP CUTOFF  2.5
Info: PATCH DIMENSION        15.5
Info: ENERGY OUTPUT STEPS    100000
Info: ENERGY EVALUATION STEPS    100000
Info: OUTPUT ENERGY PRECISION 4
Info: CROSSTERM ENERGY INCLUDED IN DIHEDRAL
Info: TIMING OUTPUT STEPS    1000000
Info: PRESSURE OUTPUT STEPS  100000
Info: ALCHEMICAL FEP ON
Info: FEP CURRENT LAMBDA VALUE     0
Info: FEP COMPARISON LAMBDA VALUE  0.05
Info: FEP INTRA-ALCHEMICAL NON-BONDED INTERACTIONS WILL BE RETAINED
Info: FEP INTRA-ALCHEMICAL BONDED INTERACTIONS WILL BE RETAINED
Info: FEP VDW SHIFTING COEFFICIENT 5
Info: FEP ELEC. ACTIVE FOR ANNIHILATED PARTICLES BETWEEN LAMBDA = 0 AND LAMBDA = 0.5
Info: FEP ELEC. ACTIVE FOR EXNIHILATED PARTICLES BETWEEN LAMBDA = 0.5 AND LAMBDA = 1
Info: FEP VDW ACTIVE FOR ANNIHILATED PARTICLES BETWEEN LAMBDA = 0 AND LAMBDA = 1
Info: FEP VDW ACTIVE FOR EXNIHILATED PARTICLES BETWEEN LAMBDA = 0 AND LAMBDA = 1
Info: FEP BOND ACTIVE FOR ANNIHILATED PARTICLES BETWEEN LAMBDA = 1 AND LAMBDA = 1
Info: FEP BOND ACTIVE FOR EXNIHILATED PARTICLES BETWEEN LAMBDA = 0 AND LAMBDA = 0
Info: LANGEVIN DYNAMICS ACTIVE
Info: LANGEVIN TEMPERATURE   300
Info: LANGEVIN USING BBK INTEGRATOR
Info: LANGEVIN DAMPING COEFFICIENT IS 1 INVERSE PS
Info: LANGEVIN DYNAMICS APPLIED TO HYDROGENS
Info: LANGEVIN PISTON PRESSURE CONTROL ACTIVE
Info:        TARGET PRESSURE IS 1.01325 BAR
Info:     OSCILLATION PERIOD IS 50 FS
Info:             DECAY TIME IS 25 FS
Info:     PISTON TEMPERATURE IS 300 K
Info:       PRESSURE CONTROL IS GROUP-BASED
Info:    INITIAL STRAIN RATE IS 0.000108179 0.000108179 0.000108179
Info:       CELL FLUCTUATION IS ISOTROPIC
Info: PARTICLE MESH EWALD (PME) ACTIVE
Info: PME TOLERANCE               1e-06
Info: PME EWALD COEFFICIENT       0.348832
Info: PME INTERPOLATION ORDER     4
Info: PME GRID DIMENSIONS         32 32 36
Info: PME MAXIMUM GRID SPACING    1
Info: PME CALCULATION WILL BE PERFORMED ON GPU
Info: FULL ELECTROSTATIC EVALUATION FREQUENCY      2
Info: USING VERLET I (r-RESPA) MTS SCHEME.
Info: C1 SPLITTING OF LONG RANGE ELECTROSTATICS
Info: PLACING ATOMS IN PATCHES BY HYDROGEN GROUPS
Info: RIGID BONDS TO HYDROGEN : ALL
Info:         ERROR TOLERANCE : 1e-08
Info:          MAX ITERATIONS : 100
Info: RIGID WATER USING SETTLE ALGORITHM
Info: RANDOM NUMBER SEED     1744072489
Info: USE HYDROGEN BONDS?    NO
Info: Using AMBER format force field!
Info: AMBER PARM FILE        mobley_6248915.prmtop
Info: COORDINATE PDB         mobley_6248915.pdb
Info: Exclusions will be read from PARM file!
Info: SCNB (VDW SCALING)     2
Info: USING ARITHMETIC MEAN TO COMBINE L-J SIGMA PARAMETERS
Info: BINARY COORDINATES     mobley_6248915_equil.coor
Info: SUMMARY OF PARAMETERS:
Info: 7 BONDS
Info: 9 ANGLES
Info:   9 HARMONIC
Info:   0 COSINE-BASED
Info: 7 DIHEDRAL
Info: 0 IMPROPER
Info: 0 CROSSTERM
Info: 0 VDW
Info: 28 VDW_PAIRS
Info: 0 NBTHOLE_PAIRS
Info: To read alchdata from file: mobley_6248915.pdb
Info: To read alchflag data from column: 5
Info: STRUCTURE SUMMARY:
Info: 2935 ATOMS
Info: 2934 BONDS
Info: 51 ANGLES
Info: 79 DIHEDRALS
Info: 0 IMPROPERS
Info: 0 CROSSTERMS
Info: 3054 EXCLUSIONS
Info: 2926 RIGID BONDS
Info: ALCH: 0 ATOMS TO DISAPPEAR IN FINAL STATE
Info: ALCH: 28 ATOMS TO APPEAR IN FINAL STATE
Info: 5879 DEGREES OF FREEDOM
Info: 978 HYDROGEN GROUPS
Info: 4 ATOMS IN LARGEST HYDROGEN GROUP
Info: 978 MIGRATION GROUPS
Info: 4 ATOMS IN LARGEST MIGRATION GROUP
Info: TOTAL MASS = 17586.7 amu
Info: TOTAL CHARGE = 2.6077e-08 e
Info: MASS DENSITY = 0.960858 g/cm^3
Info: ATOM DENSITY = 0.0965656 atoms/A^3
Info: ADDED 0 IMPLICIT EXCLUSIONS
Info: NONBONDED TABLE R-SQUARED SPACING: 0.0625
Info: NONBONDED TABLE SIZE: 705 POINTS
Info: REMOVING COM VELOCITY 0.227597 0.122604 -0.0190205
Info: Use 3D box decompostion in PME FFT.
Info: Updated CUDA force table with 4096 elements.
Info: Updated CUDA LJ table with 7 x 7 elements.
Info: Found 31 unique exclusion lists needing 116 bytes
TCL: Running for 1500000 steps
ETITLE: TS BOND ANGLE DIHED IMPRP ELECT VDW BOUNDARY MISC KINETIC TOTAL TEMP POTENTIAL TOTALAVG TEMPAVG PRESSURE GPRESSURE VOLUME PRESSAVG GPRESSAVG
ENERGY: 0 4.3019 11.5255 6.1170 0.0000 -10587.7255 1463.9504 0.0000 0.0000 1807.9271 -7293.9037 309.5051 -9101.8307 -7293.9037 309.5051 54.5593 138.8339 30393.8505 54.5593 138.8339
ENERGY: 300000 2.9516 17.5064 4.0764 0.0000 -10554.0167 1422.9228 0.0000 0.0000 1772.2665 -7334.2930 303.4003 -9106.5595 -7345.6444 301.6802 260.2371 311.2611 29751.6681 32.7094 83.6158
ENERGY: 600000 3.1368 13.9940 3.5761 0.0000 -10625.2371 1489.4768 0.0000 0.0000 1700.0392 -7415.0142 291.0354 -9115.0534 -7374.9178 300.7852 498.7193 595.3900 29707.5229 91.2595 160.1839
ENERGY: 900000 1.0296 12.2177 3.6517 0.0000 -10685.4755 1464.1588 0.0000 0.0000 1762.3047 -7442.1129 301.6949 -9204.4177 -7371.8200 301.3206 480.4878 533.4566 29414.4875 -117.1008 -39.9559
ENERGY: 1200000 2.7262 14.9336 5.8329 0.0000 -10583.0951 1435.7054 0.0000 0.0000 1803.6905 -7320.2067 308.7798 -9123.8971 -7363.3696 302.5894 198.0708 256.8234 30017.9458 -197.1354 -131.8637
ENERGY: 1500000 2.7753 12.6203 4.2760 0.0000 -10608.5992 1500.7906 0.0000 0.0000 1738.9607 -7349.1763 297.6985 -9088.1370 -7360.8771 301.3319 668.2404 689.5259 29811.9577 -125.6198 -68.4283
TCL: Running FEP window   2: Lambda1 0.05   Lambda2 0.1    [dLambda 0.05  ]
TCL: Setting parameter firsttimestep to 0
TCL: Setting parameter alchLambda to 0.05
Info: NONBONDED TABLE R-SQUARED SPACING: 0.0625
Info: NONBONDED TABLE SIZE: 705 POINTS
TCL: Setting parameter alchLambda2 to 0.1
Info: NONBONDED TABLE R-SQUARED SPACING: 0.0625
Info: NONBONDED TABLE SIZE: 705 POINTS
TCL: Running for 1500000 steps
ETITLE: TS BOND ANGLE DIHED IMPRP ELECT VDW BOUNDARY MISC KINETIC TOTAL TEMP POTENTIAL TOTALAVG TEMPAVG PRESSURE GPRESSURE VOLUME PRESSAVG GPRESSAVG
ENERGY: 0 2.7753 12.6203 4.2760 0.0000 -10608.5992 1505.5141 0.0000 0.0000 1738.0461 -7345.3674 297.5420 -9083.4135 -7345.3674 297.5420 626.4076 698.2581 29811.9577 626.4076 698.2581
ENERGY: 300000 0.8941 15.3595 4.7169 0.0000 -10533.1786 1401.7903 0.0000 0.0000 1789.5557 -7320.8621 306.3601 -9110.4177 -7365.1603 303.5827 45.5315 101.5049 29917.4302 187.0460 247.3815
ENERGY: 600000 1.7675 11.8441 4.9869 0.0000 -10570.9070 1386.2603 0.0000 0.0000 1782.7003 -7383.3479 305.1865 -9166.0482 -7376.3738 302.6495 -376.8241 -307.1852 29999.6793 19.5321 72.3376
ENERGY: 900000 3.1655 9.1817 4.4196 0.0000 -10501.5663 1401.3779 0.0000 0.0000 1787.1033 -7296.3182 305.9402 -9083.4215 -7373.9104 303.7936 55.0120 86.7748 30030.3927 -14.1377 39.1265
ENERGY: 1200000 2.0246 13.2851 6.7649 0.0000 -10651.8733 1467.1023 0.0000 0.0000 1700.8302 -7461.8661 291.1708 -9162.6963 -7386.8925 301.8877 270.1044 279.0912 29737.2257 24.0460 76.0393
ENERGY: 1500000 3.2813 10.2981 3.1168 0.0000 -10558.1236 1426.7875 0.0000 0.0000 1705.8144 -7408.8257 292.0241 -9114.6400 -7387.9071 301.5603 -252.3871 -145.0841 30313.0268 81.4094 138.0260
TCL: Running FEP window   3: Lambda1 0.1    Lambda2 0.15000000000000002 [dLambda 0.05000000000000002]
TCL: Setting parameter firsttimestep to 0
TCL: Setting parameter alchLambda to 0.1
Info: NONBONDED TABLE R-SQUARED SPACING: 0.0625
Info: NONBONDED TABLE SIZE: 705 POINTS
TCL: Setting parameter alchLambda2 to 0.15000000000000002
Info: NONBONDED TABLE R-SQUARED SPACING: 0.0625
Info: NONBONDED TABLE SIZE: 705 POINTS
TCL: Running for 1500000 steps
ETITLE: TS BOND ANGLE DIHED IMPRP ELECT VDW BOUNDARY MISC KINETIC TOTAL TEMP POTENTIAL TOTALAVG TEMPAVG PRESSURE GPRESSURE VOLUME PRESSAVG GPRESSAVG
ENERGY: 0 3.2813 10.2981 3.1168 0.0000 -10558.1240 1430.9515 0.0000 0.0000 1704.9162 -7405.5602 291.8703 -9110.4764 -7405.5602 291.8703 -201.4296 -130.5763 30313.0268 -201.4296 -130.5763
ENERGY: 300000 1.1738 12.3796 6.8950 0.0000 -10689.6452 1503.2869 0.0000 0.0000 1727.4062 -7438.5037 295.7205 -9165.9099 -7378.7225 300.3242 558.6679 610.0990 29749.1074 36.9197 113.6190
ENERGY: 600000 1.9264 21.9393 4.9015 0.0000 -10490.2154 1352.0900 0.0000 0.0000 1731.3038 -7378.0543 296.3877 -9109.3581 -7392.1099 299.5611 -603.1887 -495.9389 30045.3839 43.7809 130.5840
ENERGY: 900000 5.0785 15.8464 6.9003 0.0000 -10805.2030 1554.4496 0.0000 0.0000 1705.7174 -7517.2109 292.0075 -9222.9283 -7384.0234 298.2673 619.2867 685.7212 29835.5752 49.7426 124.9412
ENERGY: 1200000 5.8639 12.0194 3.9175 0.0000 -10609.9231 1423.2754 0.0000 0.0000 1732.6032 -7432.2437 296.6102 -9164.8469 -7383.3154 298.9859 -269.8413 -126.6381 30279.2180 9.1378 84.8558
ENERGY: 1500000 1.9472 13.8426 3.4426 0.0000 -10574.2826 1432.4064 0.0000 0.0000 1750.5187 -7372.1250 299.6772 -9122.6437 -7389.4017 298.2743 -55.2796 -16.0528 30330.7617 40.6898 115.9254
TCL: Running FEP window   4: Lambda1 0.15000000000000002 Lambda2 0.2    [dLambda 0.04999999999999999]
TCL: Setting parameter firsttimestep to 0
TCL: Setting parameter alchLambda to 0.15000000000000002
Info: NONBONDED TABLE R-SQUARED SPACING: 0.0625
Info: NONBONDED TABLE SIZE: 705 POINTS
TCL: Setting parameter alchLambda2 to 0.2
Info: NONBONDED TABLE R-SQUARED SPACING: 0.0625
Info: NONBONDED TABLE SIZE: 705 POINTS
TCL: Running for 1500000 steps
ETITLE: TS BOND ANGLE DIHED IMPRP ELECT VDW BOUNDARY MISC KINETIC TOTAL TEMP POTENTIAL TOTALAVG TEMPAVG PRESSURE GPRESSURE VOLUME PRESSAVG GPRESSAVG
ENERGY: 0 1.9473 13.8426 3.4426 0.0000 -10574.2813 1432.7131 0.0000 0.0000 1749.6564 -7372.6793 299.5296 -9122.3357 -7372.6793 299.5296 -95.0163 -10.8768 30330.7617 -95.0163 -10.8768
ENERGY: 300000 1.6597 12.7529 6.1433 0.0000 -10579.2884 1434.6077 0.0000 0.0000 1733.6287 -7390.4960 296.7857 -9124.1248 -7375.0596 298.7501 -79.7632 6.6333 30333.7276 72.0087 163.6132
ENERGY: 600000 0.9525 13.0769 6.0559 0.0000 -10667.3199 1459.1431 0.0000 0.0000 1691.9970 -7496.0945 289.6587 -9188.0914 -7391.0059 297.7930 244.2059 306.3105 29574.2097 -16.8397 72.7110
ENERGY: 900000 2.2067 13.3523 5.5591 0.0000 -10604.6694 1406.1373 0.0000 0.0000 1734.6072 -7442.8068 296.9532 -9177.4140 -7386.7677 298.2128 -252.2162 -174.2784 29867.0875 -23.6349 54.3578
ENERGY: 1200000 3.6998 8.8742 6.1137 0.0000 -10477.9902 1335.6228 0.0000 0.0000 1733.7834 -7389.8963 296.8122 -9123.6797 -7380.4520 298.2575 -849.2490 -800.9020 30474.9463 -151.4230 -77.3622
ENERGY: 1500000 2.9158 8.7710 7.2910 0.0000 -10528.7951 1439.7952 0.0000 0.0000 1787.6356 -7282.3864 306.0314 -9070.0220 -7389.1478 299.3141 431.8321 526.0917 29558.1311 -89.8740 -14.8894
TCL: Running FEP window   5: Lambda1 0.2    Lambda2 0.25   [dLambda 0.04999999999999999]
TCL: Setting parameter firsttimestep to 0
TCL: Setting parameter alchLambda to 0.2
Info: NONBONDED TABLE R-SQUARED SPACING: 0.0625
Info: NONBONDED TABLE SIZE: 705 POINTS
TCL: Setting parameter alchLambda2 to 0.25
Info: NONBONDED TABLE R-SQUARED SPACING: 0.0625
Info: NONBONDED TABLE SIZE: 705 POINTS
TCL: Running for 1500000 steps
ETITLE: TS BOND ANGLE DIHED IMPRP ELECT VDW BOUNDARY MISC KINETIC TOTAL TEMP POTENTIAL TOTALAVG TEMPAVG PRESSURE GPRESSURE VOLUME PRESSAVG GPRESSAVG
ENERGY: 0 2.9158 8.7710 7.2910 0.0000 -10528.7958 1440.9111 0.0000 0.0000 1786.7383 -7282.1685 305.8777 -9068.9068 -7282.1685 305.8777 438.0198 539.5885 29558.1311 438.0198 539.5885
ENERGY: 300000 2.8660 16.0961 3.1943 0.0000 -10575.0346 1453.4698 0.0000 0.0000 1748.5549 -7350.8536 299.3410 -9099.4085 -7351.7170 300.9999 148.1656 227.5564 30170.2998 109.7531 213.2142
ENERGY: 600000 1.5019 16.2610 4.5582 0.0000 -10514.6325 1406.4299 0.0000 0.0000 1754.7291 -7331.1524 300.3980 -9085.8815 -7353.0946 299.6805 -144.1590 -104.0539 30364.1751 -186.5241 -107.1412
ENERGY: 900000 3.0700 13.3516 5.2410 0.0000 -10577.0893 1439.0282 0.0000 0.0000 1780.9567 -7335.4419 304.8880 -9116.3985 -7359.5026 299.1422 -161.5768 -92.9671 30318.2698 -31.1427 46.2242
ENERGY: 1200000 1.4438 13.0298 3.9345 0.0000 -10704.5637 1476.3201 0.0000 0.0000 1764.9372 -7444.8983 302.1455 -9209.8355 -7371.1987 299.7056 362.3889 436.8971 29974.4938 1.9010 73.8013
ENERGY: 1500000 2.0135 11.6816 4.0333 0.0000 -10620.0624 1416.2324 0.0000 0.0000 1743.7569 -7442.3446 298.5196 -9186.1015 -7385.8180 299.8735 19.9520 62.9700 29963.4006 55.0759 122.4954
TCL: Running FEP window   6: Lambda1 0.25   Lambda2 0.3    [dLambda 0.04999999999999999]
TCL: Setting parameter firsttimestep to 0
TCL: Setting parameter alchLambda to 0.25
Info: NONBONDED TABLE R-SQUARED SPACING: 0.0625
Info: NONBONDED TABLE SIZE: 705 POINTS
TCL: Setting parameter alchLambda2 to 0.3
Info: NONBONDED TABLE R-SQUARED SPACING: 0.0625
Info: NONBONDED TABLE SIZE: 705 POINTS
TCL: Running for 1500000 steps
ETITLE: TS BOND ANGLE DIHED IMPRP ELECT VDW BOUNDARY MISC KINETIC TOTAL TEMP POTENTIAL TOTALAVG TEMPAVG PRESSURE GPRESSURE VOLUME PRESSAVG GPRESSAVG
ENERGY: 0 2.0135 11.6816 4.0333 0.0000 -10620.0623 1416.3343 0.0000 0.0000 1742.9156 -7443.0839 298.3756 -9185.9995 -7443.0839 298.3756 -12.7212 70.9956 29963.4006 -12.7212 70.9956
ENERGY: 300000 2.5943 12.1285 5.8022 0.0000 -10601.6474 1451.7686 0.0000 0.0000 1791.7178 -7337.6360 306.7302 -9129.3538 -7386.4564 304.5822 77.5724 158.2915 30317.1287 -80.8598 8.6608
ENERGY: 600000 2.5226 11.4392 8.5182 0.0000 -10688.2096 1473.4785 0.0000 0.0000 1767.6055 -7424.6456 302.6023 -9192.2511 -7394.3380 303.1688 356.8860 380.4298 29894.1706 69.2217 136.1306
ENERGY: 900000 1.9480 13.7247 4.8358 0.0000 -10626.0122 1437.0555 0.0000 0.0000 1763.3099 -7405.1382 301.8670 -9168.4481 -7405.2045 301.6267 -153.8800 -91.8391 30444.7861 108.5517 177.1493
ENERGY: 1200000 2.0669 14.6117 5.1998 0.0000 -10667.6551 1451.6421 0.0000 0.0000 1738.5864 -7455.5482 297.6344 -9194.1346 -7406.5378 299.9280 -131.2576 -47.4390 30171.6187 -8.1516 54.4699
ENERGY: 1500000 4.5539 13.8739 3.0800 0.0000 -10570.6623 1439.5656 0.0000 0.0000 1741.9212 -7367.6678 298.2053 -9109.5889 -7410.7360 298.7919 -252.9396 -215.4270 30696.0560 -14.6451 39.9056
TCL: Running FEP window   7: Lambda1 0.3    Lambda2 0.35   [dLambda 0.04999999999999999]
TCL: Setting parameter firsttimestep to 0
TCL: Setting parameter alchLambda to 0.3
Info: NONBONDED TABLE R-SQUARED SPACING: 0.0625
Info: NONBONDED TABLE SIZE: 705 POINTS
TCL: Setting parameter alchLambda2 to 0.35
Info: NONBONDED TABLE R-SQUARED SPACING: 0.0625
Info: NONBONDED TABLE SIZE: 705 POINTS
TCL: Running for 1500000 steps
ETITLE: TS BOND ANGLE DIHED IMPRP ELECT VDW BOUNDARY MISC KINETIC TOTAL TEMP POTENTIAL TOTALAVG TEMPAVG PRESSURE GPRESSURE VOLUME PRESSAVG GPRESSAVG
ENERGY: 0 4.5539 13.8739 3.0800 0.0000 -10570.6625 1439.2463 0.0000 0.0000 1741.0515 -7368.8570 298.0565 -9109.9085 -7368.8570 298.0565 -280.8617 -211.8386 30696.0560 -280.8617 -211.8386
ENERGY: 300000 2.2632 12.0666 3.7918 0.0000 -10465.2827 1375.4814 0.0000 0.0000 1784.2429 -7287.4368 305.4505 -9071.6796 -7363.9391 298.5692 -228.8296 -176.3292 30173.1385 -299.1483 -219.3905
ENERGY: 600000 3.6043 14.3397 4.7733 0.0000 -10517.1806 1375.4970 0.0000 0.0000 1764.4930 -7354.4733 302.0695 -9118.9663 -7355.3322 300.1937 -286.3618 -243.7170 30041.4078 -356.9753 -277.7438
ENERGY: 900000 2.0879 12.2070 3.2914 0.0000 -10606.1504 1421.6542 0.0000 0.0000 1720.5003 -7446.4096 294.5382 -9166.9099 -7358.2013 299.5140 -149.1244 -111.9260 29868.1812 -347.9423 -270.0781
ENERGY: 1200000 1.1655 9.2287 3.0104 0.0000 -10521.9799 1360.7170 0.0000 0.0000 1722.2353 -7425.6231 294.8352 -9147.8583 -7361.5252 299.0148 -434.8095 -365.8982 29893.0894 -378.7288 -300.0596
ENERGY: 1500000 2.4544 9.1458 4.7190 0.0000 -10531.6816 1402.3187 0.0000 0.0000 1731.8064 -7381.2373 296.4738 -9113.0437 -7361.4408 299.6547 -157.7308 -131.8367 30157.4299 -324.4510 -249.4557
TCL: Running FEP window   8: Lambda1 0.35   Lambda2 0.39999999999999997 [dLambda 0.04999999999999999]
TCL: Setting parameter firsttimestep to 0
TCL: Setting parameter alchLambda to 0.35
Info: NONBONDED TABLE R-SQUARED SPACING: 0.0625
Info: NONBONDED TABLE SIZE: 705 POINTS
TCL: Setting parameter alchLambda2 to 0.39999999999999997
Info: NONBONDED TABLE R-SQUARED SPACING: 0.0625
Info: NONBONDED TABLE SIZE: 705 POINTS
TCL: Running for 1500000 steps
ETITLE: TS BOND ANGLE DIHED IMPRP ELECT VDW BOUNDARY MISC KINETIC TOTAL TEMP POTENTIAL TOTALAVG TEMPAVG PRESSURE GPRESSURE VOLUME PRESSAVG GPRESSAVG
ENERGY: 0 2.4544 9.1458 4.7190 0.0000 -10531.6796 1402.9722 0.0000 0.0000 1730.8863 -7381.5018 296.3162 -9112.3881 -7381.5018 296.3162 -208.6595 -123.5010 30157.4299 -208.6595 -123.5010
ENERGY: 300000 6.1234 14.8972 4.5364 0.0000 -10496.5456 1368.2470 0.0000 0.0000 1705.9697 -7396.7719 292.0507 -9102.7417 -7405.4326 296.5866 -619.7149 -622.7348 30811.5225 -335.1106 -280.1372
ENERGY: 600000 2.4648 16.2398 5.1344 0.0000 -10660.0133 1479.3727 0.0000 0.0000 1787.2064 -7369.5952 305.9579 -9156.8016 -7401.5663 298.8620 685.0616 728.9827 29660.8446 -155.4467 -82.3727
ENERGY: 900000 3.6458 17.3701 5.8961 0.0000 -10483.4702 1349.5089 0.0000 0.0000 1766.7981 -7340.2514 302.4641 -9107.0494 -7396.4677 299.2607 -609.1993 -533.7863 30478.1558 -111.7867 -48.4104
ENERGY: 1200000 0.8383 15.7234 5.3821 0.0000 -10507.8628 1388.6202 0.0000 0.0000 1780.4498 -7316.8489 304.8012 -9097.2987 -7378.1369 300.6542 -354.2320 -363.1177 30469.5716 -102.9497 -42.6199
ENERGY: 1500000 2.3072 16.1451 4.7350 0.0000 -10414.4650 1375.9615 0.0000 0.0000 1776.1154 -7239.2008 304.0592 -9015.3162 -7379.5677 299.8254 21.7552 35.0501 30099.4492 -84.2267 -29.8171
TCL: Running FEP window   9: Lambda1 0.39999999999999997 Lambda2 0.44999999999999996 [dLambda 0.04999999999999999]
TCL: Setting parameter firsttimestep to 0
TCL: Setting parameter alchLambda to 0.39999999999999997
Info: NONBONDED TABLE R-SQUARED SPACING: 0.0625
Info: NONBONDED TABLE SIZE: 705 POINTS
TCL: Setting parameter alchLambda2 to 0.44999999999999996
Info: NONBONDED TABLE R-SQUARED SPACING: 0.0625
Info: NONBONDED TABLE SIZE: 705 POINTS
TCL: Running for 1500000 steps
ETITLE: TS BOND ANGLE DIHED IMPRP ELECT VDW BOUNDARY MISC KINETIC TOTAL TEMP POTENTIAL TOTALAVG TEMPAVG PRESSURE GPRESSURE VOLUME PRESSAVG GPRESSAVG
ENERGY: 0 2.3072 16.1451 4.7350 0.0000 -10414.4653 1376.1071 0.0000 0.0000 1775.2534 -7239.9175 303.9116 -9015.1709 -7239.9175 303.9116 -28.1884 42.2968 30099.4492 -28.1884 42.2968
ENERGY: 300000 2.6559 9.0168 3.4266 0.0000 -10531.6760 1367.6143 0.0000 0.0000 1720.1585 -7428.8039 294.4797 -9148.9625 -7382.8978 295.4361 -696.1410 -655.9802 30131.6978 -351.2283 -286.9416
ENERGY: 600000 3.9624 16.1831 6.7222 0.0000 -10533.2698 1332.5254 0.0000 0.0000 1719.8594 -7454.0173 294.4285 -9173.8767 -7387.0545 298.2143 -757.9311 -685.9646 29877.2927 -310.0069 -249.3001
ENERGY: 900000 2.6750 14.0744 3.2343 0.0000 -10463.4101 1360.3049 0.0000 0.0000 1726.7608 -7356.3607 295.6100 -9083.1215 -7385.2796 298.1362 -245.7219 -183.0700 30025.9858 -243.8933 -180.5593
ENERGY: 1200000 2.4928 11.3100 6.8054 0.0000 -10572.2971 1414.2722 0.0000 0.0000 1744.5881 -7392.8286 298.6619 -9137.4167 -7390.8233 298.3090 -448.4763 -337.8456 30386.6794 -272.5631 -207.0488
ENERGY: 1500000 1.0672 8.3172 4.9419 0.0000 -10566.2396 1387.5752 0.0000 0.0000 1747.8431 -7416.4950 299.2191 -9164.3381 -7394.4846 298.6380 -511.7507 -473.8509 30294.0135 -262.9474 -205.2983
TCL: Running FEP window  10: Lambda1 0.44999999999999996 Lambda2 0.49999999999999994 [dLambda 0.04999999999999999]
TCL: Setting parameter firsttimestep to 0
TCL: Setting parameter alchLambda to 0.44999999999999996
Info: NONBONDED TABLE R-SQUARED SPACING: 0.0625
Info: NONBONDED TABLE SIZE: 705 POINTS
TCL: Setting parameter alchLambda2 to 0.49999999999999994
Info: NONBONDED TABLE R-SQUARED SPACING: 0.0625
Info: NONBONDED TABLE SIZE: 705 POINTS
TCL: Running for 1500000 steps
ETITLE: TS BOND ANGLE DIHED IMPRP ELECT VDW BOUNDARY MISC KINETIC TOTAL TEMP POTENTIAL TOTALAVG TEMPAVG PRESSURE GPRESSURE VOLUME PRESSAVG GPRESSAVG
ENERGY: 0 1.0672 8.3172 4.9419 0.0000 -10566.2391 1386.7765 0.0000 0.0000 1746.9492 -7418.1870 299.0661 -9165.1362 -7418.1870 299.0661 -562.3371 -476.1837 30294.0135 -562.3371 -476.1837
ENERGY: 300000 1.7967 16.5729 6.0327 0.0000 -10578.6882 1425.8278 0.0000 0.0000 1760.4434 -7368.0147 301.3762 -9128.4581 -7374.7531 304.6137 -57.2310 4.5663 30275.0732 48.1049 105.1443
ENERGY: 600000 1.3561 12.5009 3.5882 0.0000 -10580.8951 1412.9058 0.0000 0.0000 1757.2012 -7393.3430 300.8212 -9150.5442 -7382.1976 300.9823 207.1976 267.5868 29624.4143 145.9053 199.5711
ENERGY: 900000 2.5463 10.9952 3.8158 0.0000 -10426.2562 1337.8908 0.0000 0.0000 1716.6126 -7354.3955 293.8727 -9071.0081 -7387.9016 299.8061 -920.9716 -817.4035 30939.6223 46.4834 99.0397
ENERGY: 1200000 3.0092 13.6574 5.7399 0.0000 -10595.3481 1475.4020 0.0000 0.0000 1752.7244 -7344.8152 300.0548 -9097.5396 -7384.3506 299.7889 585.0942 570.3172 29980.0546 91.4433 149.6373
ENERGY: 1500000 3.8880 9.2853 4.5199 0.0000 -10602.6095 1410.4061 0.0000 0.0000 1773.8180 -7400.6921 303.6659 -9174.5101 -7378.6536 300.1229 -413.8298 -301.5720 30136.8975 41.7165 106.0051
TCL: Running FEP window  11: Lambda1 0.49999999999999994 Lambda2 0.5499999999999999 [dLambda 0.04999999999999999]
TCL: Setting parameter firsttimestep to 0
TCL: Setting parameter alchLambda to 0.49999999999999994
Info: NONBONDED TABLE R-SQUARED SPACING: 0.0625
Info: NONBONDED TABLE SIZE: 705 POINTS
TCL: Setting parameter alchLambda2 to 0.5499999999999999
Info: NONBONDED TABLE R-SQUARED SPACING: 0.0625
Info: NONBONDED TABLE SIZE: 705 POINTS
TCL: Running for 1500000 steps
ETITLE: TS BOND ANGLE DIHED IMPRP ELECT VDW BOUNDARY MISC KINETIC TOTAL TEMP POTENTIAL TOTALAVG TEMPAVG PRESSURE GPRESSURE VOLUME PRESSAVG GPRESSAVG
ENERGY: 0 3.8880 9.2853 4.5199 0.0000 -10602.6092 1410.2751 0.0000 0.0000 1772.9277 -7401.7131 303.5135 -9174.6409 -7401.7131 303.5135 -369.6196 -291.9664 30136.8975 -369.6196 -291.9664
ENERGY: 300000 4.8832 8.2851 5.4014 0.0000 -10558.1110 1423.2405 0.0000 0.0000 1758.6706 -7357.6302 301.0727 -9116.3008 -7328.1428 304.3191 -249.7090 -234.2018 30827.2926 -160.2040 -145.5473
ENERGY: 600000 2.5511 14.0631 3.8131 0.0000 -10547.1056 1420.1320 0.0000 0.0000 1796.8796 -7309.6666 307.6139 -9106.5462 -7333.8760 302.8480 107.7587 244.4166 29762.7686 -15.0830 25.3747
ENERGY: 900000 2.9229 10.1023 4.2928 0.0000 -10672.7569 1512.4649 0.0000 0.0000 1746.5724 -7396.4016 299.0016 -9142.9740 -7339.9973 301.7084 610.7875 679.0279 30151.8806 15.9791 61.1228
ENERGY: 1200000 3.4346 19.7691 5.0952 0.0000 -10635.0905 1380.2541 0.0000 0.0000 1689.1000 -7537.4375 289.1627 -9226.5375 -7354.9443 300.6744 -577.3186 -520.6212 30121.7496 -177.1213 -127.2141
ENERGY: 1500000 4.2124 15.6502 5.5126 0.0000 -10574.7104 1468.0841 0.0000 0.0000 1653.4669 -7427.7842 283.0626 -9081.2510 -7355.9823 300.4107 249.9114 351.8670 30624.4076 18.7822 68.4915
TCL: Running FEP window  12: Lambda1 0.5499999999999999 Lambda2 0.6    [dLambda 0.050000000000000044]
TCL: Setting parameter firsttimestep to 0
TCL: Setting parameter alchLambda to 0.5499999999999999
Info: NONBONDED TABLE R-SQUARED SPACING: 0.0625
Info: NONBONDED TABLE SIZE: 705 POINTS
TCL: Setting parameter alchLambda2 to 0.6
Info: NONBONDED TABLE R-SQUARED SPACING: 0.0625
Info: NONBONDED TABLE SIZE: 705 POINTS
TCL: Running for 1500000 steps
ETITLE: TS BOND ANGLE DIHED IMPRP ELECT VDW BOUNDARY MISC KINETIC TOTAL TEMP POTENTIAL TOTALAVG TEMPAVG PRESSURE GPRESSURE VOLUME PRESSAVG GPRESSAVG
ENERGY: 0 4.2124 15.6502 5.5126 0.0000 -10574.3994 1467.5514 0.0000 0.0000 1652.5875 -7428.8852 282.9120 -9081.4727 -7428.8852 282.9120 270.8355 354.3933 30624.4076 270.8355 354.3933
ENERGY: 300000 4.8432 20.1375 3.8691 0.0000 -10644.5965 1475.4999 0.0000 0.0000 1779.3640 -7360.8828 304.6153 -9140.2468 -7393.0697 298.2944 481.1956 518.3214 30010.6270 9.8600 98.8039
ENERGY: 600000 1.6635 16.0550 4.6801 0.0000 -10311.5646 1267.9546 0.0000 0.0000 1713.4602 -7307.7511 293.3330 -9021.2113 -7363.6856 299.0367 -990.9246 -1003.5161 30539.8143 76.9521 138.6369
ENERGY: 900000 2.5839 9.7048 3.6984 0.0000 -10626.9968 1435.9156 0.0000 0.0000 1731.8091 -7443.2849 296.4742 -9175.0941 -7384.9351 298.3056 -99.0752 -51.5110 29993.6174 97.9145 154.3198
ENERGY: 1200000 2.1933 10.6524 5.5048 0.0000 -10551.1210 1428.8482 0.0000 0.0000 1772.5179 -7331.4044 303.4433 -9103.9223 -7383.1261 298.9372 28.1786 97.2247 30297.1816 147.2124 204.5245
ENERGY: 1500000 1.7235 11.5596 3.3484 0.0000 -10528.0976 1312.1814 0.0000 0.0000 1805.9889 -7393.2957 309.1733 -9199.2846 -7387.9694 300.0920 -1196.5895 -1160.1194 30332.1051 88.5603 147.9712
TCL: Running FEP window  13: Lambda1 0.6    Lambda2 0.65   [dLambda 0.050000000000000044]
TCL: Setting parameter firsttimestep to 0
TCL: Setting parameter alchLambda to 0.6
Info: NONBONDED TABLE R-SQUARED SPACING: 0.0625
Info: NONBONDED TABLE SIZE: 705 POINTS
TCL: Setting parameter alchLambda2 to 0.65
Info: NONBONDED TABLE R-SQUARED SPACING: 0.0625
Info: NONBONDED TABLE SIZE: 705 POINTS
TCL: Running for 1500000 steps
ETITLE: TS BOND ANGLE DIHED IMPRP ELECT VDW BOUNDARY MISC KINETIC TOTAL TEMP POTENTIAL TOTALAVG TEMPAVG PRESSURE GPRESSURE VOLUME PRESSAVG GPRESSAVG
ENERGY: 0 1.7235 11.5596 3.3484 0.0000 -10527.8635 1312.3347 0.0000 0.0000 1805.0938 -7393.8033 309.0201 -9198.8972 -7393.8033 309.0201 -1218.2148 -1143.8408 30332.1051 -1218.2148 -1143.8408
ENERGY: 300000 1.5067 13.7523 5.9300 0.0000 -10487.7342 1384.2697 0.0000 0.0000 1764.9570 -7317.3185 302.1489 -9082.2755 -7367.4226 304.5890 -260.9544 -189.7752 30303.6288 -529.7398 -468.2866
ENERGY: 600000 2.9711 9.7091 4.4498 0.0000 -10627.3116 1474.9301 0.0000 0.0000 1702.3489 -7432.9025 291.4308 -9135.2514 -7370.5547 303.0397 158.9517 299.2952 30638.0766 -302.0592 -230.5729
ENERGY: 900000 3.2812 17.8852 5.8964 0.0000 -10575.5820 1481.5658 0.0000 0.0000 1764.9895 -7301.9639 302.1545 -9066.9534 -7373.3357 303.1142 759.5675 860.4120 29813.7618 -182.7660 -113.9949
ENERGY: 1200000 6.1177 10.7650 7.7641 0.0000 -10549.9843 1351.1133 0.0000 0.0000 1789.5607 -7384.6635 306.3609 -9174.2242 -7372.0768 303.1783 -670.6465 -705.1893 30113.5604 -181.0592 -117.9987
ENERGY: 1500000 1.0749 10.4674 6.3523 0.0000 -10449.6325 1317.8972 0.0000 0.0000 1767.2997 -7346.5411 302.5500 -9113.8408 -7380.4942 302.4039 -647.2089 -601.7676 30075.4253 -164.9526 -102.6729
TCL: Running FEP window  14: Lambda1 0.65   Lambda2 0.7000000000000001 [dLambda 0.050000000000000044]
TCL: Setting parameter firsttimestep to 0
TCL: Setting parameter alchLambda to 0.65
Info: NONBONDED TABLE R-SQUARED SPACING: 0.0625
Info: NONBONDED TABLE SIZE: 705 POINTS
TCL: Setting parameter alchLambda2 to 0.7000000000000001
Info: NONBONDED TABLE R-SQUARED SPACING: 0.0625
Info: NONBONDED TABLE SIZE: 705 POINTS
TCL: Running for 1500000 steps
ETITLE: TS BOND ANGLE DIHED IMPRP ELECT VDW BOUNDARY MISC KINETIC TOTAL TEMP POTENTIAL TOTALAVG TEMPAVG PRESSURE GPRESSURE VOLUME PRESSAVG GPRESSAVG
ENERGY: 0 1.0749 10.4674 6.3523 0.0000 -10449.9393 1317.6961 0.0000 0.0000 1766.4641 -7347.8846 302.4069 -9114.3487 -7347.8846 302.4069 -659.2842 -590.7807 30075.4253 -659.2842 -590.7807
ENERGY: 300000 2.8141 8.5505 4.9418 0.0000 -10524.4622 1361.3111 0.0000 0.0000 1718.4220 -7428.4227 294.1824 -9146.8447 -7358.0912 301.7110 -517.1587 -415.7341 30012.1823 -333.4362 -225.5518
ENERGY: 600000 1.1335 11.2653 5.3429 0.0000 -10538.4750 1345.4337 0.0000 0.0000 1723.0371 -7452.2625 294.9725 -9175.2996 -7366.1609 301.9757 -407.9378 -341.3929 29697.0293 -247.1045 -147.0214
ENERGY: 900000 3.7017 14.4522 5.6203 0.0000 -10502.6300 1375.2489 0.0000 0.0000 1701.4732 -7402.1338 291.2809 -9103.6070 -7387.4956 299.5406 -351.2504 -287.5181 30327.8562 -211.6814 -120.3869
ENERGY: 1200000 2.1229 10.5345 5.4226 0.0000 -10597.6007 1461.7644 0.0000 0.0000 1748.4446 -7369.3116 299.3221 -9117.7562 -7387.2319 299.5447 259.0800 363.8995 30152.2549 -122.8734 -29.8640
ENERGY: 1500000 2.7287 18.8091 5.0346 0.0000 -10678.7900 1462.1787 0.0000 0.0000 1709.1351 -7480.9039 292.5926 -9190.0390 -7394.9440 298.5404 265.3315 349.8592 29813.0962 -205.2241 -114.3942
TCL: Running FEP window  15: Lambda1 0.7000000000000001 Lambda2 0.7500000000000001 [dLambda 0.050000000000000044]
TCL: Setting parameter firsttimestep to 0
TCL: Setting parameter alchLambda to 0.7000000000000001
Info: NONBONDED TABLE R-SQUARED SPACING: 0.0625
Info: NONBONDED TABLE SIZE: 705 POINTS
TCL: Setting parameter alchLambda2 to 0.7500000000000001
Info: NONBONDED TABLE R-SQUARED SPACING: 0.0625
Info: NONBONDED TABLE SIZE: 705 POINTS
TCL: Running for 1500000 steps
ETITLE: TS BOND ANGLE DIHED IMPRP ELECT VDW BOUNDARY MISC KINETIC TOTAL TEMP POTENTIAL TOTALAVG TEMPAVG PRESSURE GPRESSURE VOLUME PRESSAVG GPRESSAVG
ENERGY: 0 2.7287 18.8091 5.0346 0.0000 -10679.8954 1461.9850 0.0000 0.0000 1708.2778 -7483.0603 292.4458 -9191.3381 -7483.0603 292.4458 277.6248 357.9782 29813.0962 277.6248 357.9782
ENERGY: 300000 5.6141 10.1254 8.9918 0.0000 -10540.3697 1320.4634 0.0000 0.0000 1754.1169 -7441.0581 300.2932 -9195.1750 -7441.1846 297.3476 -1147.2470 -1078.1434 30341.0570 -181.0132 -108.5614
ENERGY: 600000 3.5489 15.8650 5.8064 0.0000 -10498.0383 1382.7548 0.0000 0.0000 1740.0468 -7350.0163 297.8845 -9090.0631 -7422.3621 297.3305 -235.7935 -139.5670 30231.6170 -271.7053 -192.0697
ENERGY: 900000 1.8493 12.4903 5.5340 0.0000 -10600.8644 1441.5115 0.0000 0.0000 1709.0474 -7430.4319 292.5776 -9139.4792 -7412.0632 296.6590 462.7759 453.9650 29692.1521 -191.5074 -132.3314
ENERGY: 1200000 4.0638 11.8588 4.4253 0.0000 -10640.6063 1406.0030 0.0000 0.0000 1712.0625 -7502.1929 293.0937 -9214.2553 -7421.0669 296.6353 -444.5105 -408.5056 30249.1328 -263.8870 -204.4337
ENERGY: 1500000 4.1107 14.2145 4.8420 0.0000 -10729.7481 1480.3560 0.0000 0.0000 1772.5746 -7453.6503 303.4530 -9226.2250 -7413.8279 297.5167 236.3177 270.7252 29810.4833 -170.6039 -110.9537
TCL: Running FEP window  16: Lambda1 0.7500000000000001 Lambda2 0.8000000000000002 [dLambda 0.050000000000000044]
TCL: Setting parameter firsttimestep to 0
TCL: Setting parameter alchLambda to 0.7500000000000001
Info: NONBONDED TABLE R-SQUARED SPACING: 0.0625
Info: NONBONDED TABLE SIZE: 705 POINTS
TCL: Setting parameter alchLambda2 to 0.8000000000000002
Info: NONBONDED TABLE R-SQUARED SPACING: 0.0625
Info: NONBONDED TABLE SIZE: 705 POINTS
TCL: Running for 1500000 steps
ETITLE: TS BOND ANGLE DIHED IMPRP ELECT VDW BOUNDARY MISC KINETIC TOTAL TEMP POTENTIAL TOTALAVG TEMPAVG PRESSURE GPRESSURE VOLUME PRESSAVG GPRESSAVG
ENERGY: 0 4.1107 14.2145 4.8420 0.0000 -10731.4813 1480.7987 0.0000 0.0000 1771.7085 -7455.8069 303.3047 -9227.5154 -7455.8069 303.3047 211.1460 282.1141 29810.4833 211.1460 282.1141
ENERGY: 300000 4.7360 8.6044 3.7597 0.0000 -10618.2066 1477.5047 0.0000 0.0000 1731.6462 -7391.9556 296.4463 -9123.6018 -7402.6531 299.5056 527.0238 557.6891 30114.4325 260.5303 321.2794
ENERGY: 600000 4.1019 17.7667 4.3254 0.0000 -10517.7156 1432.2033 0.0000 0.0000 1736.2638 -7323.0544 297.2368 -9059.3182 -7388.2580 298.6671 102.4190 158.9430 30511.7634 235.6280 291.6873
ENERGY: 900000 1.4138 14.2879 3.1078 0.0000 -10601.4421 1414.3199 0.0000 0.0000 1785.4618 -7382.8510 305.6592 -9168.3128 -7402.6058 298.6795 -14.6153 36.7172 30020.9260 223.4608 271.9224
ENERGY: 1200000 1.6524 10.3883 4.7969 0.0000 -10562.7842 1412.4750 0.0000 0.0000 1705.8528 -7427.6188 292.0307 -9133.4716 -7397.4047 298.5482 -112.4408 2.3693 30127.0187 144.9297 200.2136
ENERGY: 1500000 3.5477 12.9990 4.0015 0.0000 -10587.7278 1456.3130 0.0000 0.0000 1805.6572 -7305.2095 309.1165 -9110.8666 -7388.2064 299.1679 547.6410 719.3448 29946.5471 78.4503 139.8912
TCL: Running FEP window  17: Lambda1 0.8000000000000002 Lambda2 0.8500000000000002 [dLambda 0.050000000000000044]
TCL: Setting parameter firsttimestep to 0
TCL: Setting parameter alchLambda to 0.8000000000000002
Info: NONBONDED TABLE R-SQUARED SPACING: 0.0625
Info: NONBONDED TABLE SIZE: 705 POINTS
TCL: Setting parameter alchLambda2 to 0.8500000000000002
Info: NONBONDED TABLE R-SQUARED SPACING: 0.0625
Info: NONBONDED TABLE SIZE: 705 POINTS
TCL: Running for 1500000 steps
ETITLE: TS BOND ANGLE DIHED IMPRP ELECT VDW BOUNDARY MISC KINETIC TOTAL TEMP POTENTIAL TOTALAVG TEMPAVG PRESSURE GPRESSURE VOLUME PRESSAVG GPRESSAVG
ENERGY: 0 3.5477 12.9990 4.0015 0.0000 -10588.8893 1456.0396 0.0000 0.0000 1804.7756 -7307.5259 308.9656 -9112.3015 -7307.5259 308.9656 630.2068 728.4330 29946.5471 630.2068 728.4330
ENERGY: 300000 2.3787 9.4094 7.2716 0.0000 -10694.9816 1442.8873 0.0000 0.0000 1807.2913 -7425.7435 309.3963 -9233.0347 -7369.3175 304.0712 191.4546 175.6686 29911.7473 330.5354 359.2740
ENERGY: 600000 3.4071 13.1561 4.0875 0.0000 -10492.8654 1320.2992 0.0000 0.0000 1703.7659 -7448.1497 291.6734 -9151.9156 -7376.0298 303.7469 -921.0600 -811.7277 30297.9273 79.4190 121.6650
ENERGY: 900000 2.7628 15.9869 5.8330 0.0000 -10615.3350 1461.0897 0.0000 0.0000 1720.1641 -7409.4985 294.4807 -9129.6626 -7370.9869 302.2189 332.9564 433.4500 30191.8080 -36.3528 12.5200
ENERGY: 1200000 1.5748 15.1100 4.7998 0.0000 -10629.8562 1456.3210 0.0000 0.0000 1775.3036 -7376.7471 303.9202 -9152.0507 -7372.7696 303.1370 119.1046 200.0934 30453.0969 -51.9267 -0.8244
ENERGY: 1500000 1.6656 19.4888 3.4862 0.0000 -10638.8118 1447.1175 0.0000 0.0000 1728.6164 -7438.4373 295.9277 -9167.0537 -7384.9849 302.2315 216.1259 258.5406 29813.3826 -43.0214 12.0241
TCL: Running FEP window  18: Lambda1 0.8500000000000002 Lambda2 0.9000000000000002 [dLambda 0.050000000000000044]
TCL: Setting parameter firsttimestep to 0
TCL: Setting parameter alchLambda to 0.8500000000000002
Info: NONBONDED TABLE R-SQUARED SPACING: 0.0625
Info: NONBONDED TABLE SIZE: 705 POINTS
TCL: Setting parameter alchLambda2 to 0.9000000000000002
Info: NONBONDED TABLE R-SQUARED SPACING: 0.0625
Info: NONBONDED TABLE SIZE: 705 POINTS
TCL: Running for 1500000 steps
ETITLE: TS BOND ANGLE DIHED IMPRP ELECT VDW BOUNDARY MISC KINETIC TOTAL TEMP POTENTIAL TOTALAVG TEMPAVG PRESSURE GPRESSURE VOLUME PRESSAVG GPRESSAVG
ENERGY: 0 1.6656 19.4888 3.4862 0.0000 -10640.8250 1449.5568 0.0000 0.0000 1727.7548 -7438.8728 295.7801 -9166.6276 -7438.8728 295.7801 201.1059 287.8507 29813.3826 201.1059 287.8507
ENERGY: 300000 3.3207 14.0463 5.8081 0.0000 -10605.3275 1416.2529 0.0000 0.0000 1725.3247 -7440.5748 295.3641 -9165.8995 -7360.6293 299.3060 106.1087 190.6706 29703.1234 -218.1983 -126.2844
ENERGY: 600000 2.5380 17.8964 5.3646 0.0000 -10551.6986 1410.4507 0.0000 0.0000 1771.5906 -7343.8583 303.2846 -9115.4489 -7351.7661 300.5075 -159.5652 -96.7574 30179.8969 -124.1636 -45.2886
ENERGY: 900000 1.8138 15.7064 4.1155 0.0000 -10701.8095 1444.3062 0.0000 0.0000 1746.2166 -7489.6510 298.9407 -9235.8677 -7380.5721 298.9026 -146.9357 -29.0844 30169.5144 -174.5051 -93.2261
ENERGY: 1200000 2.1616 10.2026 5.7029 0.0000 -10576.0052 1398.8436 0.0000 0.0000 1771.9959 -7387.0985 303.3539 -9159.0944 -7381.1985 299.4791 149.9081 217.1429 29678.6990 -205.1712 -132.2492
ENERGY: 1500000 3.1178 13.0729 5.6153 0.0000 -10554.3836 1404.8467 0.0000 0.0000 1746.5801 -7381.1508 299.0029 -9127.7309 -7385.0676 299.0798 -9.0745 135.2636 30093.2195 -173.3944 -97.3647
TCL: Running FEP window  19: Lambda1 0.9000000000000002 Lambda2 0.9500000000000003 [dLambda 0.050000000000000044]
TCL: Setting parameter firsttimestep to 0
TCL: Setting parameter alchLambda to 0.9000000000000002
Info: NONBONDED TABLE R-SQUARED SPACING: 0.0625
Info: NONBONDED TABLE SIZE: 705 POINTS
TCL: Setting parameter alchLambda2 to 0.9500000000000003
Info: NONBONDED TABLE R-SQUARED SPACING: 0.0625
Info: NONBONDED TABLE SIZE: 705 POINTS
TCL: Running for 1500000 steps
ETITLE: TS BOND ANGLE DIHED IMPRP ELECT VDW BOUNDARY MISC KINETIC TOTAL TEMP POTENTIAL TOTALAVG TEMPAVG PRESSURE GPRESSURE VOLUME PRESSAVG GPRESSAVG
ENERGY: 0 3.1178 13.0729 5.6153 0.0000 -10555.7473 1405.8214 0.0000 0.0000 1745.7035 -7382.4164 298.8529 -9128.1199 -7382.4164 298.8529 76.3625 163.0348 30093.2195 76.3625 163.0348
ENERGY: 300000 1.0449 20.7889 5.2628 0.0000 -10618.0709 1512.4468 0.0000 0.0000 1759.6358 -7318.8918 301.2380 -9078.5276 -7378.3200 298.8351 1157.0212 1139.1855 29852.2605 526.3585 562.9717
ENERGY: 600000 1.9342 14.5582 5.6112 0.0000 -10536.8844 1415.6879 0.0000 0.0000 1759.9929 -7339.0999 301.2991 -9099.0928 -7366.2743 299.5049 96.5845 195.3119 30110.8118 339.3090 396.3961
ENERGY: 900000 2.7907 15.5331 4.6656 0.0000 -10553.9190 1423.8815 0.0000 0.0000 1749.0082 -7358.0400 299.4186 -9107.0482 -7382.0274 299.8685 22.1741 47.3279 30307.1265 151.8976 213.3195
ENERGY: 1200000 5.0725 13.1494 4.5805 0.0000 -10560.8894 1418.7208 0.0000 0.0000 1830.2452 -7289.1209 313.3258 -9119.3661 -7373.9432 300.9887 65.4285 153.6202 30007.2848 106.6007 172.1113
ENERGY: 1500000 7.6543 14.3911 4.9766 0.0000 -10426.4759 1318.5089 0.0000 0.0000 1766.3381 -7314.6069 302.3854 -9080.9450 -7368.6840 300.9539 -858.3877 -807.1604 30544.7558 29.2199 96.3463
TCL: Running FEP window  20: Lambda1 0.9500000000000003 Lambda2 1.0    [dLambda 0.04999999999999971]
TCL: Setting parameter firsttimestep to 0
TCL: Setting parameter alchLambda to 0.9500000000000003
Info: NONBONDED TABLE R-SQUARED SPACING: 0.0625
Info: NONBONDED TABLE SIZE: 705 POINTS
TCL: Setting parameter alchLambda2 to 1.0
Info: NONBONDED TABLE R-SQUARED SPACING: 0.0625
Info: NONBONDED TABLE SIZE: 705 POINTS
TCL: Running for 1500000 steps
ETITLE: TS BOND ANGLE DIHED IMPRP ELECT VDW BOUNDARY MISC KINETIC TOTAL TEMP POTENTIAL TOTALAVG TEMPAVG PRESSURE GPRESSURE VOLUME PRESSAVG GPRESSAVG
ENERGY: 0 7.6543 14.3911 4.9766 0.0000 -10427.9193 1319.8660 0.0000 0.0000 1765.4582 -7315.5731 302.2347 -9081.0313 -7315.5731 302.2347 -846.1017 -775.4904 30544.7558 -846.1017 -775.4904
ENERGY: 300000 3.3424 13.5689 5.1565 0.0000 -10717.0500 1490.3510 0.0000 0.0000 1705.9173 -7498.7138 292.0417 -9204.6312 -7395.5058 300.0378 476.0297 535.2939 29860.6991 -94.7907 -30.9168
ENERGY: 600000 2.4702 17.8122 5.3860 0.0000 -10513.2493 1361.1555 0.0000 0.0000 1777.5597 -7348.8657 304.3064 -9126.4254 -7389.9845 303.1439 -539.6399 -567.6999 30793.5755 -149.1678 -98.2981
ENERGY: 900000 3.7213 14.4303 4.4461 0.0000 -10496.8904 1405.8812 0.0000 0.0000 1732.8669 -7335.5446 296.6553 -9068.4114 -7390.6731 301.1162 -147.1709 -79.1295 30461.3674 -201.8937 -148.7884
ENERGY: 1200000 1.9731 16.0670 5.8943 0.0000 -10491.3744 1363.9615 0.0000 0.0000 1783.0673 -7320.4111 305.2493 -9103.4784 -7393.0298 300.8460 -495.2203 -478.2158 30506.7851 -221.5340 -170.4313
ENERGY: 1500000 0.9204 10.3442 4.4903 0.0000 -10548.6855 1424.0744 0.0000 0.0000 1718.0292 -7390.8271 294.1152 -9108.8563 -7386.2656 300.9253 137.8441 206.7182 30080.3628 -113.9294 -61.3084
TCL: Exiting due to exit command.
