Info: SIMULATION PARAMETERS:
Info: TIMESTEP               2
Info: NUMBER OF STEPS        0
Info: STEPS PER CYCLE        10
Info: PERIODIC CELL BASIS 1  30.9887 0 0
Info: PERIODIC CELL BASIS 2  0 29.5874 0
Info: PERIODIC CELL BASIS 3  0 0 32.4032
Info: PERIODIC CELL CENTER   0 0 0
Info: WRAPPING WATERS AROUND PERIODIC BOUNDARIES ON OUTPUT.
Info: WRAPPING ALL CLUSTERS AROUND PERIODIC BOUNDARIES ON OUTPUT.
Info: FIRST LDB TIMESTEP     50
Info: LAST LDB TIMESTEP     -1
Info: HOM BACKGROUND SCALING 1
Info: PME BACKGROUND SCALING 1
Info: MIN ATOMS PER PATCH    40
Info: EMPTY PATCH LOAD       40 ATOMS
Info: VELOCITY FILE          mobley_819018_equil.vel
Info: CENTER OF MASS MOVING INITIALLY? NO
Info: DIELECTRIC             1
Info: EXCLUDE                SCALED ONE-FOUR
Info: 1-4 ELECTROSTATICS SCALED BY 0.833333
Info: MODIFIED 1-4 VDW PARAMETERS WILL BE USED
Info: DCD FILENAME           mobley_819018_prod.dcd
Info: DCD FREQUENCY          100000
Info: DCD FIRST STEP         100000
Info: DCD FILE WILL CONTAIN UNIT CELL DATA
Info: XST FILENAME           mobley_819018_prod.xst
Info: XST FREQUENCY          100000
Info: NO VELOCITY DCD OUTPUT
Info: NO FORCE DCD OUTPUT
Info: OUTPUT FILENAME        mobley_819018_prod
Info: BINARY OUTPUT FILES WILL BE USED
Info: RESTART FILENAME       mobley_819018_prod.restart
Info: RESTART FREQUENCY      100000
Info: BINARY RESTART FILES WILL BE USED
Info: CUTOFF                 9
Info: PAIRLIST DISTANCE      11
Info: PAIRLIST SHRINK RATE   0.01
Info: PAIRLIST GROW RATE     0.01
Info: PAIRLIST TRIGGER       0.3
Info: PAIRLISTS PER CYCLE    2
Info: PAIRLISTS ENABLED
Info: MARGIN                 2
Info: HYDROGEN GROUP CUTOFF  2.5
Info: PATCH DIMENSION        15.5
Info: ENERGY OUTPUT STEPS    100000
Info: ENERGY EVALUATION STEPS    100000
Info: OUTPUT ENERGY PRECISION 4
Info: CROSSTERM ENERGY INCLUDED IN DIHEDRAL
Info: TIMING OUTPUT STEPS    1000000
Info: PRESSURE OUTPUT STEPS  100000
Info: ALCHEMICAL FEP ON
Info: FEP CURRENT LAMBDA VALUE     0
Info: FEP COMPARISON LAMBDA VALUE  0.05
Info: FEP INTRA-ALCHEMICAL NON-BONDED INTERACTIONS WILL BE RETAINED
Info: FEP INTRA-ALCHEMICAL BONDED INTERACTIONS WILL BE RETAINED
Info: FEP VDW SHIFTING COEFFICIENT 5
Info: FEP ELEC. ACTIVE FOR ANNIHILATED PARTICLES BETWEEN LAMBDA = 0 AND LAMBDA = 0.5
Info: FEP ELEC. ACTIVE FOR EXNIHILATED PARTICLES BETWEEN LAMBDA = 0.5 AND LAMBDA = 1
Info: FEP VDW ACTIVE FOR ANNIHILATED PARTICLES BETWEEN LAMBDA = 0 AND LAMBDA = 1
Info: FEP VDW ACTIVE FOR EXNIHILATED PARTICLES BETWEEN LAMBDA = 0 AND LAMBDA = 1
Info: FEP BOND ACTIVE FOR ANNIHILATED PARTICLES BETWEEN LAMBDA = 1 AND LAMBDA = 1
Info: FEP BOND ACTIVE FOR EXNIHILATED PARTICLES BETWEEN LAMBDA = 0 AND LAMBDA = 0
Info: LANGEVIN DYNAMICS ACTIVE
Info: LANGEVIN TEMPERATURE   300
Info: LANGEVIN USING BBK INTEGRATOR
Info: LANGEVIN DAMPING COEFFICIENT IS 1 INVERSE PS
Info: LANGEVIN DYNAMICS APPLIED TO HYDROGENS
Info: LANGEVIN PISTON PRESSURE CONTROL ACTIVE
Info:        TARGET PRESSURE IS 1.01325 BAR
Info:     OSCILLATION PERIOD IS 50 FS
Info:             DECAY TIME IS 25 FS
Info:     PISTON TEMPERATURE IS 300 K
Info:       PRESSURE CONTROL IS GROUP-BASED
Info:    INITIAL STRAIN RATE IS 0.00031969 0.00031969 0.00031969
Info:       CELL FLUCTUATION IS ISOTROPIC
Info: PARTICLE MESH EWALD (PME) ACTIVE
Info: PME TOLERANCE               1e-06
Info: PME EWALD COEFFICIENT       0.348832
Info: PME INTERPOLATION ORDER     4
Info: PME GRID DIMENSIONS         32 32 36
Info: PME MAXIMUM GRID SPACING    1
Info: PME CALCULATION WILL BE PERFORMED ON GPU
Info: FULL ELECTROSTATIC EVALUATION FREQUENCY      2
Info: USING VERLET I (r-RESPA) MTS SCHEME.
Info: C1 SPLITTING OF LONG RANGE ELECTROSTATICS
Info: PLACING ATOMS IN PATCHES BY HYDROGEN GROUPS
Info: RIGID BONDS TO HYDROGEN : ALL
Info:         ERROR TOLERANCE : 1e-08
Info:          MAX ITERATIONS : 100
Info: RIGID WATER USING SETTLE ALGORITHM
Info: RANDOM NUMBER SEED     1743992408
Info: USE HYDROGEN BONDS?    NO
Info: Using AMBER format force field!
Info: AMBER PARM FILE        mobley_819018.prmtop
Info: COORDINATE PDB         mobley_819018.pdb
Info: Exclusions will be read from PARM file!
Info: SCNB (VDW SCALING)     2
Info: USING ARITHMETIC MEAN TO COMBINE L-J SIGMA PARAMETERS
Info: BINARY COORDINATES     mobley_819018_equil.coor
Info: SUMMARY OF PARAMETERS:
Info: 10 BONDS
Info: 13 ANGLES
Info:   13 HARMONIC
Info:   0 COSINE-BASED
Info: 9 DIHEDRAL
Info: 0 IMPROPER
Info: 0 CROSSTERM
Info: 0 VDW
Info: 36 VDW_PAIRS
Info: 0 NBTHOLE_PAIRS
Info: To read alchdata from file: mobley_819018.pdb
Info: To read alchflag data from column: 5
Info: STRUCTURE SUMMARY:
Info: 2900 ATOMS
Info: 2899 BONDS
Info: 49 ANGLES
Info: 90 DIHEDRALS
Info: 0 IMPROPERS
Info: 0 CROSSTERMS
Info: 3004 EXCLUSIONS
Info: 2889 RIGID BONDS
Info: ALCH: 0 ATOMS TO DISAPPEAR IN FINAL STATE
Info: ALCH: 29 ATOMS TO APPEAR IN FINAL STATE
Info: 5811 DEGREES OF FREEDOM
Info: 968 HYDROGEN GROUPS
Info: 4 ATOMS IN LARGEST HYDROGEN GROUP
Info: 968 MIGRATION GROUPS
Info: 4 ATOMS IN LARGEST MIGRATION GROUP
Info: TOTAL MASS = 17395.6 amu
Info: TOTAL CHARGE = 3.72529e-09 e
Info: MASS DENSITY = 0.972299 g/cm^3
Info: ATOM DENSITY = 0.0976113 atoms/A^3
Info: ADDED 0 IMPLICIT EXCLUSIONS
Info: NONBONDED TABLE R-SQUARED SPACING: 0.0625
Info: NONBONDED TABLE SIZE: 705 POINTS
Info: REMOVING COM VELOCITY 0.286517 -0.144279 0.0826789
Info: Use 3D box decompostion in PME FFT.
Info: Updated CUDA force table with 4096 elements.
Info: Updated CUDA LJ table with 8 x 8 elements.
Info: Found 30 unique exclusion lists needing 120 bytes
TCL: Running for 1500000 steps
ETITLE: TS BOND ANGLE DIHED IMPRP ELECT VDW BOUNDARY MISC KINETIC TOTAL TEMP POTENTIAL TOTALAVG TEMPAVG PRESSURE GPRESSURE VOLUME PRESSAVG GPRESSAVG
ENERGY: 0 2.0970 13.5408 26.9187 0.0000 -10453.9416 1385.8274 0.0000 0.0000 1721.6775 -7303.8801 298.1888 -9025.5576 -7303.8801 298.1888 -157.9713 -94.0468 29709.6742 -157.9713 -94.0468
ENERGY: 300000 2.6723 14.5487 29.1599 0.0000 -10595.2918 1509.8128 0.0000 0.0000 1654.8504 -7384.2477 286.6146 -9039.0980 -7299.1836 298.6522 926.5917 1025.9168 29018.6857 229.2954 292.6913
ENERGY: 600000 4.9494 10.7838 28.7912 0.0000 -10600.2132 1513.7427 0.0000 0.0000 1747.5735 -7294.3726 302.6739 -9041.9461 -7274.3973 300.8869 688.9584 684.3015 29482.9678 334.6030 386.0201
ENERGY: 900000 3.7054 10.0218 28.6504 0.0000 -10435.8622 1417.5542 0.0000 0.0000 1766.0268 -7209.9036 305.8699 -8975.9304 -7273.9529 301.7643 281.6703 287.6472 29506.2324 295.2960 340.8292
ENERGY: 1200000 2.6061 14.8806 27.3993 0.0000 -10557.6987 1459.9137 0.0000 0.0000 1770.0335 -7282.8655 306.5639 -9052.8990 -7275.3054 302.3175 490.9359 596.8525 29032.2210 179.7147 236.9415
ENERGY: 1500000 2.1025 14.0736 28.5776 0.0000 -10429.8372 1411.7682 0.0000 0.0000 1701.4100 -7271.9052 294.6785 -8973.3153 -7277.4520 301.5831 -78.8444 27.7345 29860.9973 152.2971 213.7494
TCL: Running FEP window   2: Lambda1 0.05   Lambda2 0.1    [dLambda 0.05  ]
TCL: Setting parameter firsttimestep to 0
TCL: Setting parameter alchLambda to 0.05
Info: NONBONDED TABLE R-SQUARED SPACING: 0.0625
Info: NONBONDED TABLE SIZE: 705 POINTS
TCL: Setting parameter alchLambda2 to 0.1
Info: NONBONDED TABLE R-SQUARED SPACING: 0.0625
Info: NONBONDED TABLE SIZE: 705 POINTS
TCL: Running for 1500000 steps
ETITLE: TS BOND ANGLE DIHED IMPRP ELECT VDW BOUNDARY MISC KINETIC TOTAL TEMP POTENTIAL TOTALAVG TEMPAVG PRESSURE GPRESSURE VOLUME PRESSAVG GPRESSAVG
ENERGY: 0 2.1025 14.0736 28.5776 0.0000 -10429.8389 1414.2732 0.0000 0.0000 1700.5000 -7270.3120 294.5209 -8970.8120 -7270.3120 294.5209 -39.7910 38.8965 29860.9973 -39.7910 38.8965
ENERGY: 300000 4.9289 12.5548 25.3856 0.0000 -10590.2205 1452.2624 0.0000 0.0000 1744.9073 -7350.1815 302.2121 -9095.0888 -7279.2405 300.2542 225.0273 266.2348 29031.3907 112.2511 177.1193
ENERGY: 600000 3.5941 13.6852 27.5125 0.0000 -10318.0161 1310.1902 0.0000 0.0000 1717.9498 -7245.0844 297.5432 -8963.0343 -7281.8554 297.5992 -995.0286 -875.7043 29983.0006 -273.3522 -203.7910
ENERGY: 900000 3.6750 16.1790 27.6899 0.0000 -10298.8465 1301.9660 0.0000 0.0000 1709.6190 -7239.7176 296.1003 -8949.3366 -7268.4956 297.8845 -1046.8836 -1005.1011 29892.4176 -337.4259 -276.5960
ENERGY: 1200000 5.0075 14.9240 28.3230 0.0000 -10335.4308 1370.7051 0.0000 0.0000 1725.7844 -7190.6869 298.9001 -8916.4713 -7262.4748 298.0024 -334.8467 -251.9711 29748.0322 -374.9905 -310.8566
ENERGY: 1500000 3.3047 13.3023 27.4223 0.0000 -10364.4356 1359.2932 0.0000 0.0000 1802.2020 -7158.9110 312.1354 -8961.1130 -7260.7331 299.4247 -384.8726 -331.9684 30202.2292 -374.8909 -314.2723
TCL: Running FEP window   3: Lambda1 0.1    Lambda2 0.15000000000000002 [dLambda 0.05000000000000002]
TCL: Setting parameter firsttimestep to 0
TCL: Setting parameter alchLambda to 0.1
Info: NONBONDED TABLE R-SQUARED SPACING: 0.0625
Info: NONBONDED TABLE SIZE: 705 POINTS
TCL: Setting parameter alchLambda2 to 0.15000000000000002
Info: NONBONDED TABLE R-SQUARED SPACING: 0.0625
Info: NONBONDED TABLE SIZE: 705 POINTS
TCL: Running for 1500000 steps
ETITLE: TS BOND ANGLE DIHED IMPRP ELECT VDW BOUNDARY MISC KINETIC TOTAL TEMP POTENTIAL TOTALAVG TEMPAVG PRESSURE GPRESSURE VOLUME PRESSAVG GPRESSAVG
ENERGY: 0 3.3047 13.3023 27.4223 0.0000 -10364.4372 1360.8890 0.0000 0.0000 1801.3846 -7158.1342 311.9938 -8959.5189 -7158.1342 311.9938 -403.1420 -319.6398 30202.2292 -403.1420 -319.6398
ENERGY: 300000 1.2458 13.8496 27.3489 0.0000 -10411.7019 1395.5869 0.0000 0.0000 1709.9511 -7263.7197 296.1578 -8973.6708 -7238.0460 303.4419 -174.8355 -140.7539 30044.6147 -275.9433 -224.2697
ENERGY: 600000 5.7476 12.1573 27.4039 0.0000 -10476.3139 1439.2391 0.0000 0.0000 1730.7404 -7261.0255 299.7585 -8991.7659 -7248.6185 302.8477 276.4024 346.3039 29300.6863 -221.4371 -182.1619
ENERGY: 900000 5.7006 8.4736 27.4256 0.0000 -10581.8805 1498.2459 0.0000 0.0000 1703.0330 -7339.0019 294.9596 -9042.0349 -7259.3420 301.1423 546.5362 601.9631 29615.8612 -110.5873 -73.6808
ENERGY: 1200000 2.7512 11.9490 27.5160 0.0000 -10297.3847 1306.6227 0.0000 0.0000 1728.6456 -7219.9002 299.3956 -8948.5458 -7273.6630 301.0129 -650.2343 -553.9780 29782.0148 -186.1737 -137.8673
ENERGY: 1500000 1.9526 13.9062 27.0217 0.0000 -10554.2312 1437.1388 0.0000 0.0000 1710.5050 -7363.7069 296.2537 -9074.2119 -7279.2364 300.0700 -115.9955 -57.7075 29566.4793 -184.9808 -137.4972
TCL: Running FEP window   4: Lambda1 0.15000000000000002 Lambda2 0.2    [dLambda 0.04999999999999999]
TCL: Setting parameter firsttimestep to 0
TCL: Setting parameter alchLambda to 0.15000000000000002
Info: NONBONDED TABLE R-SQUARED SPACING: 0.0625
Info: NONBONDED TABLE SIZE: 705 POINTS
TCL: Setting parameter alchLambda2 to 0.2
Info: NONBONDED TABLE R-SQUARED SPACING: 0.0625
Info: NONBONDED TABLE SIZE: 705 POINTS
TCL: Running for 1500000 steps
ETITLE: TS BOND ANGLE DIHED IMPRP ELECT VDW BOUNDARY MISC KINETIC TOTAL TEMP POTENTIAL TOTALAVG TEMPAVG PRESSURE GPRESSURE VOLUME PRESSAVG GPRESSAVG
ENERGY: 0 1.9526 13.9062 27.0217 0.0000 -10554.2308 1437.6356 0.0000 0.0000 1709.6633 -7364.0514 296.1080 -9073.7147 -7364.0514 296.1080 -128.1473 -54.0765 29566.4793 -128.1473 -54.0765
ENERGY: 300000 4.7715 12.6657 27.3935 0.0000 -10557.9387 1432.6612 0.0000 0.0000 1766.9052 -7313.5415 306.0221 -9080.4467 -7318.3407 297.6024 9.3199 50.5609 29251.7491 -344.6949 -277.2901
ENERGY: 600000 1.8523 11.6226 28.1555 0.0000 -10373.8320 1384.5918 0.0000 0.0000 1698.0201 -7249.5897 294.0914 -8947.6098 -7286.7928 297.6084 35.2525 74.0024 29568.5543 -162.2031 -97.7236
ENERGY: 900000 1.1162 14.6498 26.1783 0.0000 -10384.5934 1391.6204 0.0000 0.0000 1709.2578 -7241.7710 296.0377 -8951.0288 -7276.4662 298.1848 -79.9045 -34.8000 29864.7800 -120.3072 -58.1683
ENERGY: 1200000 2.1335 12.1114 27.0961 0.0000 -10535.3848 1442.3766 0.0000 0.0000 1729.9100 -7321.7571 299.6146 -9051.6671 -7285.6707 298.4079 207.1194 280.8458 29537.2903 -79.3153 -10.8009
ENERGY: 1500000 2.7421 16.1630 29.9008 0.0000 -10375.8696 1348.4200 0.0000 0.0000 1736.2109 -7242.4329 300.7059 -8978.6438 -7277.8422 298.7958 -536.8733 -499.1427 29892.1376 -108.0897 -41.7810
TCL: Running FEP window   5: Lambda1 0.2    Lambda2 0.25   [dLambda 0.04999999999999999]
TCL: Setting parameter firsttimestep to 0
TCL: Setting parameter alchLambda to 0.2
Info: NONBONDED TABLE R-SQUARED SPACING: 0.0625
Info: NONBONDED TABLE SIZE: 705 POINTS
TCL: Setting parameter alchLambda2 to 0.25
Info: NONBONDED TABLE R-SQUARED SPACING: 0.0625
Info: NONBONDED TABLE SIZE: 705 POINTS
TCL: Running for 1500000 steps
ETITLE: TS BOND ANGLE DIHED IMPRP ELECT VDW BOUNDARY MISC KINETIC TOTAL TEMP POTENTIAL TOTALAVG TEMPAVG PRESSURE GPRESSURE VOLUME PRESSAVG GPRESSAVG
ENERGY: 0 2.7421 16.1630 29.9008 0.0000 -10375.8699 1350.0045 0.0000 0.0000 1735.3476 -7241.7120 300.5564 -8977.0596 -7241.7120 300.5564 -554.6692 -486.1321 29892.1376 -554.6692 -486.1321
ENERGY: 300000 2.9298 7.8691 30.0239 0.0000 -10371.2121 1358.5262 0.0000 0.0000 1740.7635 -7231.0996 301.4944 -8971.8630 -7255.6588 299.8214 -235.3357 -167.5732 29526.7387 -298.2854 -240.6569
ENERGY: 600000 3.0415 17.3499 28.0282 0.0000 -10556.0984 1423.3010 0.0000 0.0000 1734.4274 -7349.9504 300.3970 -9084.3778 -7276.5906 300.2155 -270.5914 -163.1272 29817.2927 -156.2802 -87.7445
ENERGY: 900000 3.8179 10.2636 30.4519 0.0000 -10466.3419 1376.3172 0.0000 0.0000 1753.8345 -7291.6568 303.7583 -9045.4913 -7268.3267 301.3521 -192.6370 -205.7308 29590.2559 -108.2752 -54.4990
ENERGY: 1200000 3.5157 17.5490 29.3076 0.0000 -10460.3531 1392.3493 0.0000 0.0000 1753.0805 -7264.5510 303.6277 -9017.6315 -7277.4048 300.5659 -369.4641 -341.1820 29964.1010 -117.2163 -64.5555
ENERGY: 1500000 2.7405 14.3393 27.7306 0.0000 -10474.7483 1429.4355 0.0000 0.0000 1723.0252 -7277.4773 298.4222 -9000.5025 -7283.8880 300.3517 565.9721 610.1771 29200.2349 -104.8230 -57.1361
TCL: Running FEP window   6: Lambda1 0.25   Lambda2 0.3    [dLambda 0.04999999999999999]
TCL: Setting parameter firsttimestep to 0
TCL: Setting parameter alchLambda to 0.25
Info: NONBONDED TABLE R-SQUARED SPACING: 0.0625
Info: NONBONDED TABLE SIZE: 705 POINTS
TCL: Setting parameter alchLambda2 to 0.3
Info: NONBONDED TABLE R-SQUARED SPACING: 0.0625
Info: NONBONDED TABLE SIZE: 705 POINTS
TCL: Running for 1500000 steps
ETITLE: TS BOND ANGLE DIHED IMPRP ELECT VDW BOUNDARY MISC KINETIC TOTAL TEMP POTENTIAL TOTALAVG TEMPAVG PRESSURE GPRESSURE VOLUME PRESSAVG GPRESSAVG
ENERGY: 0 2.7404 14.3393 27.7306 0.0000 -10474.7492 1429.8825 0.0000 0.0000 1722.1775 -7277.8789 298.2754 -9000.0564 -7277.8789 298.2754 533.7957 620.3443 29200.2349 533.7957 620.3443
ENERGY: 300000 2.6792 16.6986 29.8250 0.0000 -10434.2909 1371.7600 0.0000 0.0000 1712.9003 -7300.4278 296.6686 -9013.3281 -7269.2153 298.0014 -403.0003 -312.3514 29720.2312 128.4623 226.9199
ENERGY: 600000 3.7220 12.8179 26.3725 0.0000 -10500.7521 1436.2633 0.0000 0.0000 1674.5462 -7347.0301 290.0258 -9021.5763 -7286.5323 296.8473 -31.7503 14.6947 29701.3372 -17.2939 62.6410
ENERGY: 900000 3.1869 13.5219 26.3138 0.0000 -10406.8879 1403.1152 0.0000 0.0000 1736.4907 -7224.2594 300.7544 -8960.7501 -7271.3636 298.4259 -84.8991 -55.0781 30199.7604 -116.9387 -48.8673
ENERGY: 1200000 3.0112 10.9260 27.5624 0.0000 -10506.6307 1453.0055 0.0000 0.0000 1682.3593 -7329.7664 291.3790 -9012.1256 -7272.7838 298.2706 367.3086 432.9753 29751.0289 -73.6439 -2.6318
ENERGY: 1500000 2.7905 16.6745 28.1458 0.0000 -10569.3246 1498.2044 0.0000 0.0000 1715.8217 -7307.6877 297.1746 -9023.5094 -7267.9505 299.8086 424.1458 514.5222 29874.1313 -32.2774 39.7091
TCL: Running FEP window   7: Lambda1 0.3    Lambda2 0.35   [dLambda 0.04999999999999999]
TCL: Setting parameter firsttimestep to 0
TCL: Setting parameter alchLambda to 0.3
Info: NONBONDED TABLE R-SQUARED SPACING: 0.0625
Info: NONBONDED TABLE SIZE: 705 POINTS
TCL: Setting parameter alchLambda2 to 0.35
Info: NONBONDED TABLE R-SQUARED SPACING: 0.0625
Info: NONBONDED TABLE SIZE: 705 POINTS
TCL: Running for 1500000 steps
ETITLE: TS BOND ANGLE DIHED IMPRP ELECT VDW BOUNDARY MISC KINETIC TOTAL TEMP POTENTIAL TOTALAVG TEMPAVG PRESSURE GPRESSURE VOLUME PRESSAVG GPRESSAVG
ENERGY: 0 2.7905 16.6745 28.1458 0.0000 -10569.3251 1498.1337 0.0000 0.0000 1714.9177 -7308.6628 297.0180 -9023.5805 -7308.6628 297.0180 451.2220 517.6503 29874.1313 451.2220 517.6503
ENERGY: 300000 2.9644 13.8653 27.6007 0.0000 -10381.8839 1351.8570 0.0000 0.0000 1738.3311 -7247.2654 301.0731 -8985.5965 -7256.2163 301.8581 -379.7458 -318.9088 29855.8780 10.7812 61.2133
ENERGY: 600000 1.6762 14.3002 28.8974 0.0000 -10502.6143 1438.6914 0.0000 0.0000 1741.8877 -7277.1613 301.6891 -9019.0491 -7260.7560 299.7144 95.7629 182.2875 29966.8475 64.3682 119.1631
ENERGY: 900000 4.8028 9.4353 29.4593 0.0000 -10369.6163 1327.5760 0.0000 0.0000 1732.5488 -7265.7942 300.0717 -8998.3430 -7257.8500 300.1242 -628.5626 -585.2102 29422.7496 -18.1535 39.9543
ENERGY: 1200000 2.5027 13.2954 30.9025 0.0000 -10535.1869 1455.3868 0.0000 0.0000 1700.3129 -7332.7866 294.4885 -9033.0995 -7262.4512 299.7111 152.7167 224.7514 30055.2886 -68.3011 -10.5469
ENERGY: 1500000 3.6278 8.6159 27.5608 0.0000 -10518.8237 1416.7177 0.0000 0.0000 1680.6859 -7381.6156 291.0892 -9062.3015 -7269.4086 298.7515 78.2903 143.6354 29389.9166 -106.1879 -49.2869
TCL: Running FEP window   8: Lambda1 0.35   Lambda2 0.39999999999999997 [dLambda 0.04999999999999999]
TCL: Setting parameter firsttimestep to 0
TCL: Setting parameter alchLambda to 0.35
Info: NONBONDED TABLE R-SQUARED SPACING: 0.0625
Info: NONBONDED TABLE SIZE: 705 POINTS
TCL: Setting parameter alchLambda2 to 0.39999999999999997
Info: NONBONDED TABLE R-SQUARED SPACING: 0.0625
Info: NONBONDED TABLE SIZE: 705 POINTS
TCL: Running for 1500000 steps
ETITLE: TS BOND ANGLE DIHED IMPRP ELECT VDW BOUNDARY MISC KINETIC TOTAL TEMP POTENTIAL TOTALAVG TEMPAVG PRESSURE GPRESSURE VOLUME PRESSAVG GPRESSAVG
ENERGY: 0 3.6278 8.6159 27.5608 0.0000 -10518.8227 1417.4784 0.0000 0.0000 1679.8295 -7381.7103 290.9409 -9061.5398 -7381.7103 290.9409 64.9202 156.6014 29389.9166 64.9202 156.6014
ENERGY: 300000 3.1066 14.1894 29.4219 0.0000 -10548.6456 1511.2850 0.0000 0.0000 1725.7412 -7264.9014 298.8926 -8990.6426 -7301.7435 298.4408 813.8852 869.1209 29743.2971 568.1267 621.0301
ENERGY: 600000 4.0763 17.6086 24.9819 0.0000 -10416.8836 1396.9812 0.0000 0.0000 1722.3424 -7250.8932 298.3040 -8973.2356 -7274.2858 300.4521 -115.1242 -86.0882 30202.7818 205.5229 255.3765
ENERGY: 900000 4.1707 8.8111 24.7952 0.0000 -10379.6432 1395.5227 0.0000 0.0000 1699.9276 -7246.4159 294.4218 -8946.3435 -7280.3294 299.7116 7.2279 73.4127 30087.0914 277.4052 338.9667
ENERGY: 1200000 1.6003 15.2075 28.6547 0.0000 -10434.6010 1430.9658 0.0000 0.0000 1750.2902 -7207.8825 303.1444 -8958.1727 -7265.4606 301.2534 458.9042 467.8131 29549.6044 238.1674 295.7193
ENERGY: 1500000 7.4011 16.5663 28.1545 0.0000 -10408.9728 1355.4550 0.0000 0.0000 1756.6150 -7244.7809 304.2398 -9001.3959 -7268.3011 300.7684 -568.5789 -488.8891 29657.4343 149.0984 210.3502
TCL: Running FEP window   9: Lambda1 0.39999999999999997 Lambda2 0.44999999999999996 [dLambda 0.04999999999999999]
TCL: Setting parameter firsttimestep to 0
TCL: Setting parameter alchLambda to 0.39999999999999997
Info: NONBONDED TABLE R-SQUARED SPACING: 0.0625
Info: NONBONDED TABLE SIZE: 705 POINTS
TCL: Setting parameter alchLambda2 to 0.44999999999999996
Info: NONBONDED TABLE R-SQUARED SPACING: 0.0625
Info: NONBONDED TABLE SIZE: 705 POINTS
TCL: Running for 1500000 steps
ETITLE: TS BOND ANGLE DIHED IMPRP ELECT VDW BOUNDARY MISC KINETIC TOTAL TEMP POTENTIAL TOTALAVG TEMPAVG PRESSURE GPRESSURE VOLUME PRESSAVG GPRESSAVG
ENERGY: 0 7.4011 16.5663 28.1545 0.0000 -10408.9753 1355.2748 0.0000 0.0000 1755.7866 -7245.7920 304.0964 -9001.5786 -7245.7920 304.0964 -561.2173 -482.1442 29657.4343 -561.2173 -482.1442
ENERGY: 300000 3.4227 14.4993 26.9098 0.0000 -10543.4635 1428.9723 0.0000 0.0000 1717.8776 -7351.7817 297.5307 -9069.6593 -7312.7079 298.4459 -117.6950 -118.4856 30029.7949 -354.8508 -328.8909
ENERGY: 600000 5.3088 14.2340 25.9168 0.0000 -10476.8318 1370.5525 0.0000 0.0000 1669.5330 -7391.2869 289.1575 -9060.8198 -7336.7181 295.6927 -463.9804 -394.3801 29421.5747 -253.3266 -203.7005
ENERGY: 900000 5.8178 11.4566 28.3849 0.0000 -10515.4571 1456.9565 0.0000 0.0000 1719.9200 -7292.9213 297.8844 -9012.8412 -7325.2058 296.3358 610.8321 685.2162 29230.9585 -50.6956 5.9425
ENERGY: 1200000 7.2657 10.8864 28.9691 0.0000 -10659.5798 1535.3556 0.0000 0.0000 1701.7405 -7375.3625 294.7358 -9077.1030 -7314.5856 297.3399 739.7231 838.8587 29406.2400 -53.5027 3.9041
ENERGY: 1500000 3.4373 12.3271 28.1310 0.0000 -10493.1161 1419.4082 0.0000 0.0000 1764.7975 -7265.0149 305.6570 -9029.8124 -7310.3321 297.5984 -53.6752 33.5195 29632.8084 -32.3751 30.1970
TCL: Running FEP window  10: Lambda1 0.44999999999999996 Lambda2 0.49999999999999994 [dLambda 0.04999999999999999]
TCL: Setting parameter firsttimestep to 0
TCL: Setting parameter alchLambda to 0.44999999999999996
Info: NONBONDED TABLE R-SQUARED SPACING: 0.0625
Info: NONBONDED TABLE SIZE: 705 POINTS
TCL: Setting parameter alchLambda2 to 0.49999999999999994
Info: NONBONDED TABLE R-SQUARED SPACING: 0.0625
Info: NONBONDED TABLE SIZE: 705 POINTS
TCL: Running for 1500000 steps
ETITLE: TS BOND ANGLE DIHED IMPRP ELECT VDW BOUNDARY MISC KINETIC TOTAL TEMP POTENTIAL TOTALAVG TEMPAVG PRESSURE GPRESSURE VOLUME PRESSAVG GPRESSAVG
ENERGY: 0 3.4373 12.3271 28.1310 0.0000 -10493.1159 1419.4851 0.0000 0.0000 1763.9292 -7265.8062 305.5066 -9029.7354 -7265.8062 305.5066 -31.1261 42.1242 29632.8084 -31.1261 42.1242
ENERGY: 300000 5.0060 11.2061 30.6877 0.0000 -10527.4445 1503.4529 0.0000 0.0000 1758.0122 -7219.0796 304.4818 -8977.0918 -7274.0962 303.0646 779.3448 849.8681 29816.4735 17.8651 67.6479
ENERGY: 600000 3.4901 15.5967 27.8147 0.0000 -10592.4161 1506.8767 0.0000 0.0000 1758.7571 -7279.8808 304.6109 -9038.6379 -7281.0827 302.6143 751.7606 812.6067 29463.2418 106.6248 148.1292
ENERGY: 900000 6.4104 10.6330 33.3158 0.0000 -10368.1097 1362.3986 0.0000 0.0000 1718.3338 -7237.0181 297.6097 -8955.3519 -7266.1152 303.3383 -622.5553 -526.2884 29992.1386 11.6596 66.3255
ENERGY: 1200000 3.1435 11.8532 28.7514 0.0000 -10473.9409 1431.1382 0.0000 0.0000 1771.1482 -7227.9065 306.7570 -8999.0547 -7279.0679 302.4969 344.2076 412.4863 29893.7221 -21.9287 31.4718
ENERGY: 1500000 2.3275 12.1999 27.5406 0.0000 -10450.1131 1392.3547 0.0000 0.0000 1747.7690 -7267.9215 302.7077 -9015.6905 -7274.3596 301.8175 -283.3872 -182.1356 29864.5545 -29.1838 23.1214
TCL: Running FEP window  11: Lambda1 0.49999999999999994 Lambda2 0.5499999999999999 [dLambda 0.04999999999999999]
TCL: Setting parameter firsttimestep to 0
TCL: Setting parameter alchLambda to 0.49999999999999994
Info: NONBONDED TABLE R-SQUARED SPACING: 0.0625
Info: NONBONDED TABLE SIZE: 705 POINTS
TCL: Setting parameter alchLambda2 to 0.5499999999999999
Info: NONBONDED TABLE R-SQUARED SPACING: 0.0625
Info: NONBONDED TABLE SIZE: 705 POINTS
TCL: Running for 1500000 steps
ETITLE: TS BOND ANGLE DIHED IMPRP ELECT VDW BOUNDARY MISC KINETIC TOTAL TEMP POTENTIAL TOTALAVG TEMPAVG PRESSURE GPRESSURE VOLUME PRESSAVG GPRESSAVG
ENERGY: 0 2.3275 12.1999 27.5406 0.0000 -10450.1134 1391.9906 0.0000 0.0000 1746.9268 -7269.1282 302.5619 -9016.0550 -7269.1282 302.5619 -252.1235 -173.8671 29864.5545 -252.1235 -173.8671
ENERGY: 300000 3.7878 15.1612 27.2525 0.0000 -10414.3887 1364.4840 0.0000 0.0000 1724.0379 -7279.6653 298.5976 -9003.7032 -7265.8831 301.4015 -323.0815 -328.2207 29942.5776 -142.2258 -110.7159
ENERGY: 600000 2.5034 11.3323 27.1816 0.0000 -10479.9810 1395.4232 0.0000 0.0000 1769.1131 -7274.4273 306.4045 -9043.5404 -7269.4177 300.5999 -110.5849 -41.3729 29597.0706 -172.2424 -144.8144
ENERGY: 900000 2.9541 13.0817 27.0680 0.0000 -10509.2724 1434.7355 0.0000 0.0000 1748.3387 -7283.0944 302.8064 -9031.4331 -7279.5444 299.5639 172.0710 211.1894 29789.0178 -167.9639 -133.7686
ENERGY: 1200000 1.8481 10.6194 28.1529 0.0000 -10424.0097 1370.4248 0.0000 0.0000 1676.2288 -7336.7358 290.3172 -9012.9645 -7288.1400 298.1818 -411.7253 -344.2423 30010.3097 -47.7493 -6.8868
ENERGY: 1500000 3.7283 8.5015 26.1567 0.0000 -10532.4612 1453.8955 0.0000 0.0000 1763.4336 -7276.7456 305.4208 -9040.1792 -7287.9465 298.9057 358.3988 335.7661 29664.3877 52.7234 88.3922
TCL: Running FEP window  12: Lambda1 0.5499999999999999 Lambda2 0.6    [dLambda 0.050000000000000044]
TCL: Setting parameter firsttimestep to 0
TCL: Setting parameter alchLambda to 0.5499999999999999
Info: NONBONDED TABLE R-SQUARED SPACING: 0.0625
Info: NONBONDED TABLE SIZE: 705 POINTS
TCL: Setting parameter alchLambda2 to 0.6
Info: NONBONDED TABLE R-SQUARED SPACING: 0.0625
Info: NONBONDED TABLE SIZE: 705 POINTS
TCL: Running for 1500000 steps
ETITLE: TS BOND ANGLE DIHED IMPRP ELECT VDW BOUNDARY MISC KINETIC TOTAL TEMP POTENTIAL TOTALAVG TEMPAVG PRESSURE GPRESSURE VOLUME PRESSAVG GPRESSAVG
ENERGY: 0 3.7283 8.5015 26.1567 0.0000 -10532.7970 1453.7247 0.0000 0.0000 1762.5795 -7278.1062 305.2729 -9040.6857 -7278.1062 305.2729 269.5844 342.9149 29664.3877 269.5844 342.9149
ENERGY: 300000 1.0678 13.8069 27.2498 0.0000 -10363.5838 1382.2366 0.0000 0.0000 1749.7968 -7189.4258 303.0590 -8939.2227 -7256.9538 300.1132 73.4384 114.1926 29965.5170 199.4583 265.9995
ENERGY: 600000 5.0260 11.8492 28.7795 0.0000 -10361.8698 1339.0705 0.0000 0.0000 1727.6691 -7249.4754 299.2265 -8977.1445 -7269.4664 299.9711 -620.1649 -542.2340 29917.3860 -33.9506 28.8587
ENERGY: 900000 5.1496 9.5131 25.6480 0.0000 -10550.8109 1405.1531 0.0000 0.0000 1746.5620 -7358.7851 302.4987 -9105.3471 -7278.5906 299.9376 -308.7641 -211.9742 29507.8709 -89.5327 -11.1250
ENERGY: 1200000 2.6927 9.8401 31.1041 0.0000 -10450.0151 1417.8189 0.0000 0.0000 1775.2517 -7213.3077 307.4677 -8988.5593 -7280.6319 299.7948 88.4955 97.6585 29896.1574 -57.3701 7.6509
ENERGY: 1500000 3.8852 11.7751 24.5275 0.0000 -10471.0274 1406.2213 0.0000 0.0000 1744.0180 -7280.6004 302.0581 -9024.6183 -7278.3284 299.6074 -241.7033 -209.2358 29819.8479 -77.6457 -18.8808
TCL: Running FEP window  13: Lambda1 0.6    Lambda2 0.65   [dLambda 0.050000000000000044]
TCL: Setting parameter firsttimestep to 0
TCL: Setting parameter alchLambda to 0.6
Info: NONBONDED TABLE R-SQUARED SPACING: 0.0625
Info: NONBONDED TABLE SIZE: 705 POINTS
TCL: Setting parameter alchLambda2 to 0.65
Info: NONBONDED TABLE R-SQUARED SPACING: 0.0625
Info: NONBONDED TABLE SIZE: 705 POINTS
TCL: Running for 1500000 steps
ETITLE: TS BOND ANGLE DIHED IMPRP ELECT VDW BOUNDARY MISC KINETIC TOTAL TEMP POTENTIAL TOTALAVG TEMPAVG PRESSURE GPRESSURE VOLUME PRESSAVG GPRESSAVG
ENERGY: 0 3.8852 11.7751 24.5275 0.0000 -10471.4181 1406.2609 0.0000 0.0000 1743.1327 -7281.8366 301.9048 -9024.9693 -7281.8366 301.9048 -279.1307 -198.5897 29819.8479 -279.1307 -198.5897
ENERGY: 300000 1.5844 13.2008 26.3171 0.0000 -10441.0022 1401.0640 0.0000 0.0000 1786.7165 -7212.1194 309.4533 -8998.8359 -7214.3230 305.8256 222.4367 265.3091 29741.6204 89.1209 151.6426
ENERGY: 600000 4.2286 12.1084 27.6438 0.0000 -10443.7262 1399.5693 0.0000 0.0000 1802.4368 -7197.7392 312.1760 -9000.1761 -7238.9536 305.1474 28.5872 116.0051 29928.6907 187.6398 254.2215
ENERGY: 900000 2.1977 12.8332 29.8482 0.0000 -10566.1656 1445.2676 0.0000 0.0000 1698.9208 -7377.0980 294.2474 -9076.0189 -7262.1958 303.0009 -194.7311 -161.0034 30295.8024 -22.9877 49.6086
ENERGY: 1200000 3.9946 9.5752 27.8348 0.0000 -10442.8625 1385.4806 0.0000 0.0000 1725.4144 -7290.5630 298.8360 -9015.9773 -7271.1637 301.3983 -136.7855 -117.7553 29554.6395 -86.5044 -18.4567
ENERGY: 1500000 4.9283 13.6657 27.4246 0.0000 -10475.7439 1392.6682 0.0000 0.0000 1724.3956 -7312.6614 298.6596 -9037.0570 -7277.3253 300.2739 220.4114 186.4174 29481.1410 -118.9477 -58.3336
TCL: Running FEP window  14: Lambda1 0.65   Lambda2 0.7000000000000001 [dLambda 0.050000000000000044]
TCL: Setting parameter firsttimestep to 0
TCL: Setting parameter alchLambda to 0.65
Info: NONBONDED TABLE R-SQUARED SPACING: 0.0625
Info: NONBONDED TABLE SIZE: 705 POINTS
TCL: Setting parameter alchLambda2 to 0.7000000000000001
Info: NONBONDED TABLE R-SQUARED SPACING: 0.0625
Info: NONBONDED TABLE SIZE: 705 POINTS
TCL: Running for 1500000 steps
ETITLE: TS BOND ANGLE DIHED IMPRP ELECT VDW BOUNDARY MISC KINETIC TOTAL TEMP POTENTIAL TOTALAVG TEMPAVG PRESSURE GPRESSURE VOLUME PRESSAVG GPRESSAVG
ENERGY: 0 4.9283 13.6657 27.4246 0.0000 -10477.3326 1392.9276 0.0000 0.0000 1723.5527 -7314.8336 298.5136 -9038.3864 -7314.8336 298.5136 115.0365 195.7319 29481.1410 115.0365 195.7319
ENERGY: 300000 4.4474 11.8246 27.7160 0.0000 -10377.1631 1382.9001 0.0000 0.0000 1706.3681 -7243.9068 295.5373 -8950.2749 -7268.8332 298.5235 32.5080 63.7076 29690.7851 -230.4167 -181.6042
ENERGY: 600000 3.0895 8.9278 30.3346 0.0000 -10413.9554 1441.9428 0.0000 0.0000 1709.7071 -7219.9536 296.1156 -8929.6607 -7271.1710 296.7909 610.2158 698.6286 29493.9818 89.1262 144.8281
ENERGY: 900000 3.1766 16.7728 26.8610 0.0000 -10292.9660 1300.6291 0.0000 0.0000 1776.9678 -7168.5587 307.7649 -8945.5264 -7262.3603 298.1469 -1003.5263 -1013.5005 30423.5049 -41.5372 1.2422
ENERGY: 1200000 1.9941 13.0211 30.0974 0.0000 -10269.0935 1276.6727 0.0000 0.0000 1709.1131 -7238.1951 296.0127 -8947.3083 -7249.0374 298.8958 -1098.2592 -1030.7339 30115.0564 -170.8554 -120.5520
ENERGY: 1500000 2.0195 12.4671 27.4008 0.0000 -10416.7316 1366.8129 0.0000 0.0000 1730.4687 -7277.5625 299.7114 -9008.0313 -7262.4614 298.4834 -148.4093 -108.7093 29400.4225 -87.2895 -35.8327
TCL: Running FEP window  15: Lambda1 0.7000000000000001 Lambda2 0.7500000000000001 [dLambda 0.050000000000000044]
TCL: Setting parameter firsttimestep to 0
TCL: Setting parameter alchLambda to 0.7000000000000001
Info: NONBONDED TABLE R-SQUARED SPACING: 0.0625
Info: NONBONDED TABLE SIZE: 705 POINTS
TCL: Setting parameter alchLambda2 to 0.7500000000000001
Info: NONBONDED TABLE R-SQUARED SPACING: 0.0625
Info: NONBONDED TABLE SIZE: 705 POINTS
TCL: Running for 1500000 steps
ETITLE: TS BOND ANGLE DIHED IMPRP ELECT VDW BOUNDARY MISC KINETIC TOTAL TEMP POTENTIAL TOTALAVG TEMPAVG PRESSURE GPRESSURE VOLUME PRESSAVG GPRESSAVG
ENERGY: 0 2.0195 12.4671 27.4008 0.0000 -10417.4907 1366.4253 0.0000 0.0000 1729.6050 -7279.5731 299.5618 -9009.1781 -7279.5731 299.5618 -183.1389 -102.6312 29400.4225 -183.1389 -102.6312
ENERGY: 300000 3.6884 11.6549 23.4845 0.0000 -10497.7710 1371.4230 0.0000 0.0000 1772.3468 -7315.1734 306.9645 -9087.5202 -7281.4668 300.4604 -485.1084 -478.6696 30173.9316 -220.2193 -169.4774
ENERGY: 600000 2.7832 13.3831 27.8252 0.0000 -10392.5647 1421.0993 0.0000 0.0000 1746.0049 -7181.4689 302.4022 -8927.4738 -7269.5755 300.6503 305.4227 328.8320 30058.6826 -137.9592 -85.2247
ENERGY: 900000 2.9909 10.7858 28.5138 0.0000 -10339.9696 1362.1327 0.0000 0.0000 1693.9431 -7241.6034 293.3853 -8935.5465 -7275.4011 299.0470 -356.7969 -335.6332 30177.9209 -49.9942 5.4318
ENERGY: 1200000 5.0298 12.0116 27.8491 0.0000 -10516.2059 1433.5394 0.0000 0.0000 1740.3657 -7297.4103 301.4255 -9037.7760 -7275.3669 299.1065 78.0889 92.9812 29956.2144 -61.4155 -6.8852
ENERGY: 1500000 4.6678 7.1844 27.8072 0.0000 -10479.6693 1394.3487 0.0000 0.0000 1745.7871 -7299.8741 302.3645 -9045.6612 -7273.2797 299.5912 -161.1955 -118.8392 29905.3373 -83.8010 -28.2738
TCL: Running FEP window  16: Lambda1 0.7500000000000001 Lambda2 0.8000000000000002 [dLambda 0.050000000000000044]
TCL: Setting parameter firsttimestep to 0
TCL: Setting parameter alchLambda to 0.7500000000000001
Info: NONBONDED TABLE R-SQUARED SPACING: 0.0625
Info: NONBONDED TABLE SIZE: 705 POINTS
TCL: Setting parameter alchLambda2 to 0.8000000000000002
Info: NONBONDED TABLE R-SQUARED SPACING: 0.0625
Info: NONBONDED TABLE SIZE: 705 POINTS
TCL: Running for 1500000 steps
ETITLE: TS BOND ANGLE DIHED IMPRP ELECT VDW BOUNDARY MISC KINETIC TOTAL TEMP POTENTIAL TOTALAVG TEMPAVG PRESSURE GPRESSURE VOLUME PRESSAVG GPRESSAVG
ENERGY: 0 4.6678 7.1844 27.8072 0.0000 -10480.0660 1393.6440 0.0000 0.0000 1744.9339 -7301.8286 302.2167 -9046.7626 -7301.8286 302.2167 -203.0930 -115.3067 29905.3373 -203.0930 -115.3067
ENERGY: 300000 2.8615 13.1470 26.0070 0.0000 -10501.1819 1388.5449 0.0000 0.0000 1744.2857 -7326.3359 302.1045 -9070.6216 -7310.9879 299.7412 -259.5119 -168.1697 29737.0214 -67.3821 18.8083
ENERGY: 600000 2.0337 17.8723 28.7095 0.0000 -10398.2447 1362.3836 0.0000 0.0000 1809.1350 -7178.1107 313.3361 -8987.2457 -7272.0191 302.4024 47.6363 123.3162 29633.0895 -30.5786 47.4663
ENERGY: 900000 3.0696 14.2160 28.6127 0.0000 -10514.0197 1449.2014 0.0000 0.0000 1730.3143 -7288.6057 299.6847 -9018.9200 -7275.8341 301.0732 80.2029 195.5436 30039.8794 -41.6734 40.5360
ENERGY: 1200000 2.4756 12.1414 25.3593 0.0000 -10338.9498 1331.1593 0.0000 0.0000 1718.6917 -7249.1225 297.6717 -8967.8142 -7273.5434 301.1883 -653.7846 -532.6211 30298.3443 -66.4614 15.4123
ENERGY: 1500000 1.3011 14.2330 27.0225 0.0000 -10470.2661 1388.8188 0.0000 0.0000 1736.9555 -7301.9352 300.8349 -9038.8908 -7270.2491 301.4151 -222.8285 -174.5318 30071.0932 -48.1231 35.7451
TCL: Running FEP window  17: Lambda1 0.8000000000000002 Lambda2 0.8500000000000002 [dLambda 0.050000000000000044]
TCL: Setting parameter firsttimestep to 0
TCL: Setting parameter alchLambda to 0.8000000000000002
Info: NONBONDED TABLE R-SQUARED SPACING: 0.0625
Info: NONBONDED TABLE SIZE: 705 POINTS
TCL: Setting parameter alchLambda2 to 0.8500000000000002
Info: NONBONDED TABLE R-SQUARED SPACING: 0.0625
Info: NONBONDED TABLE SIZE: 705 POINTS
TCL: Running for 1500000 steps
ETITLE: TS BOND ANGLE DIHED IMPRP ELECT VDW BOUNDARY MISC KINETIC TOTAL TEMP POTENTIAL TOTALAVG TEMPAVG PRESSURE GPRESSURE VOLUME PRESSAVG GPRESSAVG
ENERGY: 0 1.3011 14.2330 27.0225 0.0000 -10472.1136 1389.2381 0.0000 0.0000 1736.1121 -7304.2067 300.6888 -9040.3188 -7304.2067 300.6888 -260.5865 -159.2672 30071.0932 -260.5865 -159.2672
ENERGY: 300000 6.9502 14.0979 26.9471 0.0000 -10498.1159 1458.6658 0.0000 0.0000 1717.6659 -7273.7889 297.4940 -8991.4548 -7308.5860 299.4064 511.5254 557.6481 29658.3617 -271.8422 -207.0012
ENERGY: 600000 2.7967 14.4186 27.9394 0.0000 -10467.8847 1386.9295 0.0000 0.0000 1774.4342 -7261.3664 307.3261 -9035.8005 -7291.8581 300.1838 -162.7233 -106.2699 29876.4131 -159.9406 -103.4271
ENERGY: 900000 0.9105 13.1356 26.6174 0.0000 -10475.8501 1404.3702 0.0000 0.0000 1738.4501 -7292.3663 301.0937 -9030.8164 -7275.8126 301.1722 148.9009 140.3170 29682.1597 -135.3398 -92.8337
ENERGY: 1200000 4.8063 10.0136 29.6253 0.0000 -10543.0260 1384.8682 0.0000 0.0000 1760.7045 -7353.0080 304.9481 -9113.7125 -7284.6245 301.5949 -447.0577 -350.7480 29512.4049 -147.9608 -107.0740
ENERGY: 1500000 2.9555 11.3147 25.0777 0.0000 -10441.2608 1384.2278 0.0000 0.0000 1730.3659 -7287.3192 299.6936 -9017.6851 -7283.1371 301.4409 -207.0052 -146.9009 29802.1801 -146.7383 -104.2712
TCL: Running FEP window  18: Lambda1 0.8500000000000002 Lambda2 0.9000000000000002 [dLambda 0.050000000000000044]
TCL: Setting parameter firsttimestep to 0
TCL: Setting parameter alchLambda to 0.8500000000000002
Info: NONBONDED TABLE R-SQUARED SPACING: 0.0625
Info: NONBONDED TABLE SIZE: 705 POINTS
TCL: Setting parameter alchLambda2 to 0.9000000000000002
Info: NONBONDED TABLE R-SQUARED SPACING: 0.0625
Info: NONBONDED TABLE SIZE: 705 POINTS
TCL: Running for 1500000 steps
ETITLE: TS BOND ANGLE DIHED IMPRP ELECT VDW BOUNDARY MISC KINETIC TOTAL TEMP POTENTIAL TOTALAVG TEMPAVG PRESSURE GPRESSURE VOLUME PRESSAVG GPRESSAVG
ENERGY: 0 2.9555 11.3147 25.0777 0.0000 -10441.5876 1384.6194 0.0000 0.0000 1729.5208 -7288.0995 299.5472 -9017.6203 -7288.0995 299.5472 -211.9822 -124.5850 29802.1801 -211.9822 -124.5850
ENERGY: 300000 1.4972 12.1018 29.5537 0.0000 -10516.6046 1482.4971 0.0000 0.0000 1731.6608 -7259.2940 299.9179 -8990.9549 -7311.4552 295.9200 275.0622 338.5273 30617.4267 436.3525 515.9049
ENERGY: 600000 3.7569 11.7157 31.7137 0.0000 -10383.8445 1376.1749 0.0000 0.0000 1726.8741 -7233.6091 299.0888 -8960.4832 -7282.2171 301.8378 246.1657 266.7443 29425.4308 377.6021 451.6512
ENERGY: 900000 4.1244 11.0813 27.8209 0.0000 -10356.8767 1357.1839 0.0000 0.0000 1717.0819 -7239.5844 297.3928 -8956.6663 -7271.3673 301.4140 -391.8999 -358.8336 30082.1491 266.9797 332.2944
ENERGY: 1200000 3.1686 10.3579 29.3254 0.0000 -10382.6557 1289.6293 0.0000 0.0000 1709.4335 -7340.7409 296.0682 -9050.1745 -7278.4638 300.8388 -1358.2777 -1207.4682 30110.2715 89.4397 159.3221
ENERGY: 1500000 3.1754 13.0913 26.9296 0.0000 -10472.3781 1429.7027 0.0000 0.0000 1775.0856 -7224.3936 307.4389 -8999.4792 -7272.9002 301.2458 437.3302 507.2329 29627.7145 126.2184 201.9213
TCL: Running FEP window  19: Lambda1 0.9000000000000002 Lambda2 0.9500000000000003 [dLambda 0.050000000000000044]
TCL: Setting parameter firsttimestep to 0
TCL: Setting parameter alchLambda to 0.9000000000000002
Info: NONBONDED TABLE R-SQUARED SPACING: 0.0625
Info: NONBONDED TABLE SIZE: 705 POINTS
TCL: Setting parameter alchLambda2 to 0.9500000000000003
Info: NONBONDED TABLE R-SQUARED SPACING: 0.0625
Info: NONBONDED TABLE SIZE: 705 POINTS
TCL: Running for 1500000 steps
ETITLE: TS BOND ANGLE DIHED IMPRP ELECT VDW BOUNDARY MISC KINETIC TOTAL TEMP POTENTIAL TOTALAVG TEMPAVG PRESSURE GPRESSURE VOLUME PRESSAVG GPRESSAVG
ENERGY: 0 3.1754 13.0913 26.9296 0.0000 -10473.7911 1430.6288 0.0000 0.0000 1774.2454 -7225.7206 307.2934 -8999.9660 -7225.7206 307.2934 445.4681 534.0950 29627.7145 445.4681 534.0950
ENERGY: 300000 1.3470 17.4699 27.9784 0.0000 -10459.3401 1384.2358 0.0000 0.0000 1715.0001 -7313.3088 297.0323 -9028.3089 -7265.3172 303.1268 -278.6387 -189.8694 30167.6927 288.8013 383.8781
ENERGY: 600000 2.5584 15.7771 29.4785 0.0000 -10563.8133 1457.5536 0.0000 0.0000 1699.0903 -7359.3555 294.2768 -9058.4458 -7267.5330 301.0920 511.3098 570.6183 29572.5229 157.7274 226.2887
ENERGY: 900000 6.7563 10.5394 30.2766 0.0000 -10421.7048 1355.9672 0.0000 0.0000 1717.4899 -7300.6754 297.4635 -9018.1653 -7268.2423 301.1439 -422.6811 -365.4548 29602.6185 84.9969 154.0017
ENERGY: 1200000 5.6361 17.2812 29.6137 0.0000 -10311.3200 1343.2355 0.0000 0.0000 1725.3179 -7190.2355 298.8193 -8915.5534 -7261.0792 301.5570 -310.7419 -312.3463 30372.4978 142.3306 203.0280
ENERGY: 1500000 4.5679 15.6877 27.5356 0.0000 -10472.8799 1371.6546 0.0000 0.0000 1751.9248 -7301.5092 303.4275 -9053.4340 -7271.6653 300.7645 -601.4320 -610.8118 30370.1302 63.6214 116.2386
TCL: Running FEP window  20: Lambda1 0.9500000000000003 Lambda2 1.0    [dLambda 0.04999999999999971]
TCL: Setting parameter firsttimestep to 0
TCL: Setting parameter alchLambda to 0.9500000000000003
Info: NONBONDED TABLE R-SQUARED SPACING: 0.0625
Info: NONBONDED TABLE SIZE: 705 POINTS
TCL: Setting parameter alchLambda2 to 1.0
Info: NONBONDED TABLE R-SQUARED SPACING: 0.0625
Info: NONBONDED TABLE SIZE: 705 POINTS
TCL: Running for 1500000 steps
ETITLE: TS BOND ANGLE DIHED IMPRP ELECT VDW BOUNDARY MISC KINETIC TOTAL TEMP POTENTIAL TOTALAVG TEMPAVG PRESSURE GPRESSURE VOLUME PRESSAVG GPRESSAVG
ENERGY: 0 4.5679 15.6877 27.5356 0.0000 -10473.9131 1372.0880 0.0000 0.0000 1751.0363 -7302.9977 303.2736 -9054.0339 -7302.9977 303.2736 -676.6065 -594.7071 30370.1302 -676.6065 -594.7071
ENERGY: 300000 4.0374 10.7576 28.1259 0.0000 -10474.9814 1375.1196 0.0000 0.0000 1717.2956 -7339.6453 297.4299 -9056.9409 -7289.6004 300.3271 -372.3744 -332.4967 29949.6651 -200.5884 -146.9644
ENERGY: 600000 1.9070 11.0091 28.0946 0.0000 -10432.5049 1411.9663 0.0000 0.0000 1743.2774 -7236.2504 301.9298 -8979.5278 -7288.2683 299.1296 170.6173 245.2760 30053.2243 61.2105 128.8978
ENERGY: 900000 3.0593 11.9398 27.7838 0.0000 -10411.1929 1333.8500 0.0000 0.0000 1690.0472 -7344.5127 292.7105 -9034.5600 -7296.6988 299.0514 -442.5090 -392.6552 29927.1561 7.6350 65.8221
ENERGY: 1200000 4.5351 14.8807 28.4868 0.0000 -10397.6472 1364.4186 0.0000 0.0000 1710.3300 -7274.9960 296.2234 -8985.3260 -7288.2946 298.8500 -349.0956 -343.0509 30141.4461 -19.1257 39.8392
ENERGY: 1500000 2.2557 13.1670 26.9311 0.0000 -10483.2623 1395.8160 0.0000 0.0000 1735.6424 -7309.4500 300.6075 -9045.0924 -7298.6750 298.3606 64.6422 116.1094 29605.6331 -28.1856 28.6333
TCL: Exiting due to exit command.
