Info: SIMULATION PARAMETERS:
Info: TIMESTEP               2
Info: NUMBER OF STEPS        0
Info: STEPS PER CYCLE        10
Info: PERIODIC CELL BASIS 1  29.1519 0 0
Info: PERIODIC CELL BASIS 2  0 34.2035 0
Info: PERIODIC CELL BASIS 3  0 0 30.2214
Info: PERIODIC CELL CENTER   0 0 0
Info: WRAPPING WATERS AROUND PERIODIC BOUNDARIES ON OUTPUT.
Info: WRAPPING ALL CLUSTERS AROUND PERIODIC BOUNDARIES ON OUTPUT.
Info: FIRST LDB TIMESTEP     50
Info: LAST LDB TIMESTEP     -1
Info: HOM BACKGROUND SCALING 1
Info: PME BACKGROUND SCALING 1
Info: MIN ATOMS PER PATCH    40
Info: EMPTY PATCH LOAD       40 ATOMS
Info: VELOCITY FILE          mobley_6935906_equil.vel
Info: CENTER OF MASS MOVING INITIALLY? NO
Info: DIELECTRIC             1
Info: EXCLUDE                SCALED ONE-FOUR
Info: 1-4 ELECTROSTATICS SCALED BY 0.833333
Info: MODIFIED 1-4 VDW PARAMETERS WILL BE USED
Info: DCD FILENAME           mobley_6935906_prod.dcd
Info: DCD FREQUENCY          100000
Info: DCD FIRST STEP         100000
Info: DCD FILE WILL CONTAIN UNIT CELL DATA
Info: XST FILENAME           mobley_6935906_prod.xst
Info: XST FREQUENCY          100000
Info: NO VELOCITY DCD OUTPUT
Info: NO FORCE DCD OUTPUT
Info: OUTPUT FILENAME        mobley_6935906_prod
Info: BINARY OUTPUT FILES WILL BE USED
Info: RESTART FILENAME       mobley_6935906_prod.restart
Info: RESTART FREQUENCY      100000
Info: BINARY RESTART FILES WILL BE USED
Info: CUTOFF                 9
Info: PAIRLIST DISTANCE      11
Info: PAIRLIST SHRINK RATE   0.01
Info: PAIRLIST GROW RATE     0.01
Info: PAIRLIST TRIGGER       0.3
Info: PAIRLISTS PER CYCLE    2
Info: PAIRLISTS ENABLED
Info: MARGIN                 2
Info: HYDROGEN GROUP CUTOFF  2.5
Info: PATCH DIMENSION        15.5
Info: ENERGY OUTPUT STEPS    100000
Info: ENERGY EVALUATION STEPS    100000
Info: OUTPUT ENERGY PRECISION 4
Info: CROSSTERM ENERGY INCLUDED IN DIHEDRAL
Info: TIMING OUTPUT STEPS    1000000
Info: PRESSURE OUTPUT STEPS  100000
Info: ALCHEMICAL FEP ON
Info: FEP CURRENT LAMBDA VALUE     0
Info: FEP COMPARISON LAMBDA VALUE  0.05
Info: FEP INTRA-ALCHEMICAL NON-BONDED INTERACTIONS WILL BE RETAINED
Info: FEP INTRA-ALCHEMICAL BONDED INTERACTIONS WILL BE RETAINED
Info: FEP VDW SHIFTING COEFFICIENT 5
Info: FEP ELEC. ACTIVE FOR ANNIHILATED PARTICLES BETWEEN LAMBDA = 0 AND LAMBDA = 0.5
Info: FEP ELEC. ACTIVE FOR EXNIHILATED PARTICLES BETWEEN LAMBDA = 0.5 AND LAMBDA = 1
Info: FEP VDW ACTIVE FOR ANNIHILATED PARTICLES BETWEEN LAMBDA = 0 AND LAMBDA = 1
Info: FEP VDW ACTIVE FOR EXNIHILATED PARTICLES BETWEEN LAMBDA = 0 AND LAMBDA = 1
Info: FEP BOND ACTIVE FOR ANNIHILATED PARTICLES BETWEEN LAMBDA = 1 AND LAMBDA = 1
Info: FEP BOND ACTIVE FOR EXNIHILATED PARTICLES BETWEEN LAMBDA = 0 AND LAMBDA = 0
Info: LANGEVIN DYNAMICS ACTIVE
Info: LANGEVIN TEMPERATURE   300
Info: LANGEVIN USING BBK INTEGRATOR
Info: LANGEVIN DAMPING COEFFICIENT IS 1 INVERSE PS
Info: LANGEVIN DYNAMICS APPLIED TO HYDROGENS
Info: LANGEVIN PISTON PRESSURE CONTROL ACTIVE
Info:        TARGET PRESSURE IS 1.01325 BAR
Info:     OSCILLATION PERIOD IS 50 FS
Info:             DECAY TIME IS 25 FS
Info:     PISTON TEMPERATURE IS 300 K
Info:       PRESSURE CONTROL IS GROUP-BASED
Info:    INITIAL STRAIN RATE IS -0.000385034 -0.000385034 -0.000385034
Info:       CELL FLUCTUATION IS ISOTROPIC
Info: PARTICLE MESH EWALD (PME) ACTIVE
Info: PME TOLERANCE               1e-06
Info: PME EWALD COEFFICIENT       0.348832
Info: PME INTERPOLATION ORDER     4
Info: PME GRID DIMENSIONS         32 36 32
Info: PME MAXIMUM GRID SPACING    1
Info: PME CALCULATION WILL BE PERFORMED ON GPU
Info: FULL ELECTROSTATIC EVALUATION FREQUENCY      2
Info: USING VERLET I (r-RESPA) MTS SCHEME.
Info: C1 SPLITTING OF LONG RANGE ELECTROSTATICS
Info: PLACING ATOMS IN PATCHES BY HYDROGEN GROUPS
Info: RIGID BONDS TO HYDROGEN : ALL
Info:         ERROR TOLERANCE : 1e-08
Info:          MAX ITERATIONS : 100
Info: RIGID WATER USING SETTLE ALGORITHM
Info: RANDOM NUMBER SEED     1744045783
Info: USE HYDROGEN BONDS?    NO
Info: Using AMBER format force field!
Info: AMBER PARM FILE        mobley_6935906.prmtop
Info: COORDINATE PDB         mobley_6935906.pdb
Info: Exclusions will be read from PARM file!
Info: SCNB (VDW SCALING)     2
Info: USING ARITHMETIC MEAN TO COMBINE L-J SIGMA PARAMETERS
Info: BINARY COORDINATES     mobley_6935906_equil.coor
Info: SUMMARY OF PARAMETERS:
Info: 11 BONDS
Info: 17 ANGLES
Info:   17 HARMONIC
Info:   0 COSINE-BASED
Info: 24 DIHEDRAL
Info: 0 IMPROPER
Info: 0 CROSSTERM
Info: 0 VDW
Info: 36 VDW_PAIRS
Info: 0 NBTHOLE_PAIRS
Info: To read alchdata from file: mobley_6935906.pdb
Info: To read alchflag data from column: 5
Info: STRUCTURE SUMMARY:
Info: 2959 ATOMS
Info: 2958 BONDS
Info: 58 ANGLES
Info: 111 DIHEDRALS
Info: 0 IMPROPERS
Info: 0 CROSSTERMS
Info: 3086 EXCLUSIONS
Info: 2945 RIGID BONDS
Info: ALCH: 0 ATOMS TO DISAPPEAR IN FINAL STATE
Info: ALCH: 34 ATOMS TO APPEAR IN FINAL STATE
Info: 5932 DEGREES OF FREEDOM
Info: 989 HYDROGEN GROUPS
Info: 4 ATOMS IN LARGEST HYDROGEN GROUP
Info: 989 MIGRATION GROUPS
Info: 4 ATOMS IN LARGEST MIGRATION GROUP
Info: TOTAL MASS = 17761.9 amu
Info: TOTAL CHARGE = -0.000100106 e
Info: MASS DENSITY = 0.978805 g/cm^3
Info: ATOM DENSITY = 0.0981958 atoms/A^3
Info: ADDED 0 IMPLICIT EXCLUSIONS
Info: NONBONDED TABLE R-SQUARED SPACING: 0.0625
Info: NONBONDED TABLE SIZE: 705 POINTS
Info: REMOVING COM VELOCITY -0.092404 -0.0024594 -0.0203349
Info: Use 3D box decompostion in PME FFT.
Info: Updated CUDA force table with 4096 elements.
Info: Updated CUDA LJ table with 8 x 8 elements.
Info: Found 37 unique exclusion lists needing 168 bytes
TCL: Running for 1500000 steps
ETITLE: TS BOND ANGLE DIHED IMPRP ELECT VDW BOUNDARY MISC KINETIC TOTAL TEMP POTENTIAL TOTALAVG TEMPAVG PRESSURE GPRESSURE VOLUME PRESSAVG GPRESSAVG
ENERGY: 0 8.2361 21.9698 23.5787 0.0000 -10669.2332 1425.8645 0.0000 0.0000 1797.5827 -7392.0014 304.9848 -9189.5841 -7392.0014 304.9848 123.4615 211.5790 30133.6801 123.4615 211.5790
ENERGY: 300000 4.4502 19.0616 22.3186 0.0000 -10699.2770 1453.2715 0.0000 0.0000 1736.6360 -7463.5391 294.6443 -9200.1751 -7416.3259 300.1990 319.3262 353.7037 30151.1899 172.0735 246.7540
ENERGY: 600000 3.1630 13.2849 24.5915 0.0000 -10637.1660 1327.5239 0.0000 0.0000 1769.1820 -7499.4206 300.1662 -9268.6026 -7427.7326 301.8487 -1097.7346 -997.3213 30018.3614 16.9479 81.8732
ENERGY: 900000 3.2006 24.4243 24.2836 0.0000 -10676.9824 1423.5582 0.0000 0.0000 1720.0489 -7481.4669 291.8301 -9201.5158 -7441.4916 301.5419 -271.9272 -138.3330 30020.9591 -150.3442 -85.2860
ENERGY: 1200000 2.1943 15.0889 22.4871 0.0000 -10638.9709 1402.2457 0.0000 0.0000 1743.3746 -7453.5803 295.7876 -9196.9549 -7443.2112 300.6845 -330.4998 -282.5682 30061.5592 -144.6338 -76.9783
ENERGY: 1500000 4.4510 15.0924 23.2125 0.0000 -10581.2345 1370.3813 0.0000 0.0000 1769.6229 -7398.4744 300.2410 -9168.0973 -7450.6891 299.4418 -496.7991 -508.0287 30505.9577 -165.1051 -103.7151
TCL: Running FEP window   2: Lambda1 0.05   Lambda2 0.1    [dLambda 0.05  ]
TCL: Setting parameter firsttimestep to 0
TCL: Setting parameter alchLambda to 0.05
Info: NONBONDED TABLE R-SQUARED SPACING: 0.0625
Info: NONBONDED TABLE SIZE: 705 POINTS
TCL: Setting parameter alchLambda2 to 0.1
Info: NONBONDED TABLE R-SQUARED SPACING: 0.0625
Info: NONBONDED TABLE SIZE: 705 POINTS
TCL: Running for 1500000 steps
ETITLE: TS BOND ANGLE DIHED IMPRP ELECT VDW BOUNDARY MISC KINETIC TOTAL TEMP POTENTIAL TOTALAVG TEMPAVG PRESSURE GPRESSURE VOLUME PRESSAVG GPRESSAVG
ENERGY: 0 4.4510 15.0924 23.2125 0.0000 -10581.2353 1376.4863 0.0000 0.0000 1768.7466 -7393.2465 300.0923 -9161.9931 -7393.2465 300.0923 -562.9809 -493.7613 30505.9577 -562.9809 -493.7613
ENERGY: 300000 3.7625 17.3645 22.5292 0.0000 -10661.1918 1414.0135 0.0000 0.0000 1771.9775 -7431.5446 300.6405 -9203.5221 -7424.9843 299.6330 -207.1992 -142.1251 30277.2921 -129.4085 -54.4403
ENERGY: 600000 2.9386 17.3562 23.5681 0.0000 -10774.5936 1478.8234 0.0000 0.0000 1780.9466 -7470.9608 302.1622 -9251.9074 -7433.7617 299.9809 -42.7833 -7.9523 30334.8551 -70.1344 2.6861
ENERGY: 900000 4.7268 11.6529 26.6010 0.0000 -10782.9483 1424.7189 0.0000 0.0000 1842.5519 -7472.6968 312.6144 -9315.2487 -7444.4567 301.1936 -494.0937 -472.9667 30016.5502 -171.8880 -99.7645
ENERGY: 1200000 2.7512 17.4274 22.8025 0.0000 -10652.0197 1448.8874 0.0000 0.0000 1734.9159 -7425.2354 294.3525 -9160.1513 -7450.5945 299.9648 174.8839 189.2663 30402.7429 -75.7530 -10.5333
ENERGY: 1500000 5.2786 18.5047 25.1368 0.0000 -10602.4714 1383.5149 0.0000 0.0000 1765.9121 -7404.1243 299.6114 -9170.0364 -7442.3849 299.8237 -331.8950 -267.1809 30161.9864 -110.9651 -41.3247
TCL: Running FEP window   3: Lambda1 0.1    Lambda2 0.15000000000000002 [dLambda 0.05000000000000002]
TCL: Setting parameter firsttimestep to 0
TCL: Setting parameter alchLambda to 0.1
Info: NONBONDED TABLE R-SQUARED SPACING: 0.0625
Info: NONBONDED TABLE SIZE: 705 POINTS
TCL: Setting parameter alchLambda2 to 0.15000000000000002
Info: NONBONDED TABLE R-SQUARED SPACING: 0.0625
Info: NONBONDED TABLE SIZE: 705 POINTS
TCL: Running for 1500000 steps
ETITLE: TS BOND ANGLE DIHED IMPRP ELECT VDW BOUNDARY MISC KINETIC TOTAL TEMP POTENTIAL TOTALAVG TEMPAVG PRESSURE GPRESSURE VOLUME PRESSAVG GPRESSAVG
ENERGY: 0 5.2786 18.5047 25.1368 0.0000 -10602.4701 1385.3492 0.0000 0.0000 1765.0335 -7403.1673 299.4623 -9168.2008 -7403.1673 299.4623 -339.5424 -259.2552 30161.9864 -339.5424 -259.2552
ENERGY: 300000 6.6512 18.6099 22.1400 0.0000 -10688.1657 1451.4666 0.0000 0.0000 1746.3457 -7442.9521 296.2917 -9189.2978 -7441.0593 298.1754 233.0695 235.1965 30023.3008 204.5412 241.0945
ENERGY: 600000 2.1449 16.4710 19.8845 0.0000 -10699.3862 1416.5812 0.0000 0.0000 1766.0183 -7478.2863 299.6294 -9244.3046 -7460.6369 298.6240 -275.2567 -157.5699 29974.8203 -82.7962 -28.2740
ENERGY: 900000 7.4602 19.9161 21.9060 0.0000 -10731.1302 1429.1981 0.0000 0.0000 1767.1527 -7485.4970 299.8219 -9252.6497 -7467.3127 298.1596 -144.7468 -55.1680 29925.9964 -61.4181 5.7967
ENERGY: 1200000 4.0915 17.1447 21.7181 0.0000 -10616.7036 1373.6287 0.0000 0.0000 1808.8994 -7391.2212 306.9048 -9200.1205 -7446.9589 300.0935 -543.3912 -487.4748 30474.7920 -98.0342 -29.5530
ENERGY: 1500000 5.0915 15.7156 27.7333 0.0000 -10575.7668 1317.5322 0.0000 0.0000 1794.2623 -7415.4318 304.4214 -9209.6942 -7445.7157 300.2785 -1010.6365 -971.2334 30309.6840 -154.1839 -87.2651
TCL: Running FEP window   4: Lambda1 0.15000000000000002 Lambda2 0.2    [dLambda 0.04999999999999999]
TCL: Setting parameter firsttimestep to 0
TCL: Setting parameter alchLambda to 0.15000000000000002
Info: NONBONDED TABLE R-SQUARED SPACING: 0.0625
Info: NONBONDED TABLE SIZE: 705 POINTS
TCL: Setting parameter alchLambda2 to 0.2
Info: NONBONDED TABLE R-SQUARED SPACING: 0.0625
Info: NONBONDED TABLE SIZE: 705 POINTS
TCL: Running for 1500000 steps
ETITLE: TS BOND ANGLE DIHED IMPRP ELECT VDW BOUNDARY MISC KINETIC TOTAL TEMP POTENTIAL TOTALAVG TEMPAVG PRESSURE GPRESSURE VOLUME PRESSAVG GPRESSAVG
ENERGY: 0 5.0916 15.7156 27.7333 0.0000 -10575.7667 1318.5834 0.0000 0.0000 1793.3486 -7415.2942 304.2664 -9208.6429 -7415.2942 304.2664 -1059.7063 -964.2152 30309.6840 -1059.7063 -964.2152
ENERGY: 300000 4.7667 19.2173 21.1474 0.0000 -10765.4831 1464.0477 0.0000 0.0000 1722.0958 -7534.2081 292.1774 -9256.3039 -7472.3918 300.9094 293.7699 249.4693 30253.6164 -203.7458 -165.7056
ENERGY: 600000 4.0555 13.1504 23.2679 0.0000 -10735.8851 1452.8907 0.0000 0.0000 1790.1457 -7452.3748 303.7230 -9242.5205 -7463.3700 301.2236 -100.2076 -18.5239 30343.7743 -178.6144 -127.5130
ENERGY: 900000 7.5111 17.7868 20.5569 0.0000 -10691.6025 1458.4768 0.0000 0.0000 1803.7897 -7383.4813 306.0378 -9187.2709 -7451.1300 300.4440 189.4721 242.3771 30134.2299 -67.2772 -5.2600
ENERGY: 1200000 5.4725 18.6677 22.6922 0.0000 -10610.4802 1361.8596 0.0000 0.0000 1817.7443 -7384.0439 308.4054 -9201.7882 -7450.1297 300.6356 -704.6835 -658.9193 30824.8354 -153.1963 -92.9893
ENERGY: 1500000 2.9417 20.9853 21.7622 0.0000 -10640.8184 1382.5580 0.0000 0.0000 1723.4233 -7489.1479 292.4026 -9212.5712 -7451.1749 300.4035 -500.1380 -433.2656 30025.8051 -116.6480 -61.0581
TCL: Running FEP window   5: Lambda1 0.2    Lambda2 0.25   [dLambda 0.04999999999999999]
TCL: Setting parameter firsttimestep to 0
TCL: Setting parameter alchLambda to 0.2
Info: NONBONDED TABLE R-SQUARED SPACING: 0.0625
Info: NONBONDED TABLE SIZE: 705 POINTS
TCL: Setting parameter alchLambda2 to 0.25
Info: NONBONDED TABLE R-SQUARED SPACING: 0.0625
Info: NONBONDED TABLE SIZE: 705 POINTS
TCL: Running for 1500000 steps
ETITLE: TS BOND ANGLE DIHED IMPRP ELECT VDW BOUNDARY MISC KINETIC TOTAL TEMP POTENTIAL TOTALAVG TEMPAVG PRESSURE GPRESSURE VOLUME PRESSAVG GPRESSAVG
ENERGY: 0 2.9417 20.9853 21.7622 0.0000 -10640.8183 1387.4311 0.0000 0.0000 1722.5244 -7485.1736 292.2501 -9207.6980 -7485.1736 292.2501 -482.6619 -408.0811 30025.8051 -482.6619 -408.0811
ENERGY: 300000 4.9844 16.9727 22.8923 0.0000 -10641.4336 1411.2101 0.0000 0.0000 1814.6291 -7370.7451 307.8769 -9185.3742 -7441.0673 297.0522 -213.4159 -81.3382 30081.4420 -331.4687 -243.3329
ENERGY: 600000 6.0778 13.2480 21.1050 0.0000 -10668.6741 1467.1115 0.0000 0.0000 1755.8618 -7405.2700 297.9062 -9161.1319 -7421.4481 297.8790 172.4762 243.9320 30105.7985 -299.7657 -219.5948
ENERGY: 900000 4.2668 13.2907 22.9856 0.0000 -10778.2988 1477.8585 0.0000 0.0000 1770.0844 -7489.8127 300.3193 -9259.8972 -7444.6303 297.9464 384.7972 426.2387 29914.6937 -193.8406 -126.0402
ENERGY: 1200000 5.0339 14.9663 23.5449 0.0000 -10813.1496 1518.0603 0.0000 0.0000 1829.0456 -7422.4986 310.3229 -9251.5442 -7438.0590 299.2362 405.5595 532.4275 30135.4137 -74.3282 -0.4572
ENERGY: 1500000 4.4496 13.9793 24.2921 0.0000 -10718.3396 1442.7589 0.0000 0.0000 1797.8551 -7435.0047 305.0310 -9232.8598 -7441.6952 299.8984 -91.1182 -15.5256 30387.1848 12.9459 85.8608
TCL: Running FEP window   6: Lambda1 0.25   Lambda2 0.3    [dLambda 0.04999999999999999]
TCL: Setting parameter firsttimestep to 0
TCL: Setting parameter alchLambda to 0.25
Info: NONBONDED TABLE R-SQUARED SPACING: 0.0625
Info: NONBONDED TABLE SIZE: 705 POINTS
TCL: Setting parameter alchLambda2 to 0.3
Info: NONBONDED TABLE R-SQUARED SPACING: 0.0625
Info: NONBONDED TABLE SIZE: 705 POINTS
TCL: Running for 1500000 steps
ETITLE: TS BOND ANGLE DIHED IMPRP ELECT VDW BOUNDARY MISC KINETIC TOTAL TEMP POTENTIAL TOTALAVG TEMPAVG PRESSURE GPRESSURE VOLUME PRESSAVG GPRESSAVG
ENERGY: 0 4.4496 13.9793 24.2921 0.0000 -10718.3398 1442.7008 0.0000 0.0000 1796.9220 -7435.9960 304.8727 -9232.9181 -7435.9960 304.8727 -84.9012 -9.3429 30387.1848 -84.9012 -9.3429
ENERGY: 300000 3.6533 11.6245 23.1112 0.0000 -10724.9086 1473.5991 0.0000 0.0000 1790.3560 -7422.5644 303.7586 -9212.9204 -7432.4671 303.0441 296.4303 317.6223 30284.6200 96.6295 150.0231
ENERGY: 600000 3.3134 17.3027 28.4558 0.0000 -10760.0247 1491.6744 0.0000 0.0000 1823.1519 -7396.1266 309.3229 -9219.2784 -7434.0829 302.0133 279.7100 257.0082 30489.2946 113.4312 155.0243
ENERGY: 900000 8.5468 15.6416 24.2030 0.0000 -10584.4201 1361.2773 0.0000 0.0000 1772.1656 -7402.5859 300.6724 -9174.7516 -7429.2432 302.0977 -572.5079 -535.0857 30177.8165 -52.9052 -4.9337
ENERGY: 1200000 3.3572 11.7275 22.5554 0.0000 -10698.6921 1402.5545 0.0000 0.0000 1692.2532 -7566.2442 287.1141 -9258.4974 -7435.6595 300.6213 -420.2550 -377.0654 30373.5870 -29.5724 21.0200
ENERGY: 1500000 7.9229 20.4095 24.2852 0.0000 -10789.4606 1500.9785 0.0000 0.0000 1803.6531 -7432.2115 306.0147 -9235.8645 -7433.4131 300.7014 419.6517 441.0446 30166.2644 -0.4713 50.3914
TCL: Running FEP window   7: Lambda1 0.3    Lambda2 0.35   [dLambda 0.04999999999999999]
TCL: Setting parameter firsttimestep to 0
TCL: Setting parameter alchLambda to 0.3
Info: NONBONDED TABLE R-SQUARED SPACING: 0.0625
Info: NONBONDED TABLE SIZE: 705 POINTS
TCL: Setting parameter alchLambda2 to 0.35
Info: NONBONDED TABLE R-SQUARED SPACING: 0.0625
Info: NONBONDED TABLE SIZE: 705 POINTS
TCL: Running for 1500000 steps
ETITLE: TS BOND ANGLE DIHED IMPRP ELECT VDW BOUNDARY MISC KINETIC TOTAL TEMP POTENTIAL TOTALAVG TEMPAVG PRESSURE GPRESSURE VOLUME PRESSAVG GPRESSAVG
ENERGY: 0 7.9229 20.4095 24.2852 0.0000 -10789.4612 1501.3361 0.0000 0.0000 1802.8042 -7432.7034 305.8706 -9235.5075 -7432.7034 305.8706 369.2999 450.7471 30166.2644 369.2999 450.7471
ENERGY: 300000 9.4994 16.3964 20.5029 0.0000 -10724.5134 1388.5692 0.0000 0.0000 1760.7529 -7528.7927 298.7361 -9289.5456 -7445.0760 300.7388 -1128.2426 -981.3679 30602.9267 -38.3205 78.3571
ENERGY: 600000 4.5399 21.8285 21.5393 0.0000 -10722.2124 1489.2451 0.0000 0.0000 1762.4008 -7422.6588 299.0157 -9185.0597 -7422.9255 300.4405 392.9183 433.6967 30363.0649 -11.7452 87.7519
ENERGY: 900000 3.6467 13.4921 19.7889 0.0000 -10594.9907 1355.3376 0.0000 0.0000 1710.1155 -7492.6098 290.1447 -9202.7253 -7456.3128 297.7967 -798.8380 -658.7791 30426.3704 -28.4546 80.1865
ENERGY: 1200000 8.2296 22.4761 23.4063 0.0000 -10577.4554 1317.8412 0.0000 0.0000 1708.7417 -7496.7603 289.9116 -9205.5020 -7452.7285 298.0584 -1148.8621 -1082.1609 30239.7843 -85.1239 4.0399
ENERGY: 1500000 3.2831 13.2138 24.5320 0.0000 -10698.2550 1381.9243 0.0000 0.0000 1761.0150 -7514.2868 298.7805 -9275.3018 -7463.0443 298.3065 -785.5622 -749.6429 30300.8914 -180.1205 -98.5054
TCL: Running FEP window   8: Lambda1 0.35   Lambda2 0.39999999999999997 [dLambda 0.04999999999999999]
TCL: Setting parameter firsttimestep to 0
TCL: Setting parameter alchLambda to 0.35
Info: NONBONDED TABLE R-SQUARED SPACING: 0.0625
Info: NONBONDED TABLE SIZE: 705 POINTS
TCL: Setting parameter alchLambda2 to 0.39999999999999997
Info: NONBONDED TABLE R-SQUARED SPACING: 0.0625
Info: NONBONDED TABLE SIZE: 705 POINTS
TCL: Running for 1500000 steps
ETITLE: TS BOND ANGLE DIHED IMPRP ELECT VDW BOUNDARY MISC KINETIC TOTAL TEMP POTENTIAL TOTALAVG TEMPAVG PRESSURE GPRESSURE VOLUME PRESSAVG GPRESSAVG
ENERGY: 0 3.2831 13.2138 24.5320 0.0000 -10698.2570 1382.0160 0.0000 0.0000 1760.1492 -7515.0629 298.6336 -9275.2121 -7515.0629 298.6336 -818.3816 -738.1968 30300.8914 -818.3816 -738.1968
ENERGY: 300000 4.3064 16.7104 22.8016 0.0000 -10684.1312 1453.3066 0.0000 0.0000 1694.4887 -7492.5175 287.4934 -9187.0061 -7478.4547 295.6598 421.7297 415.1592 30221.6868 -300.7562 -258.5174
ENERGY: 600000 5.4589 20.6233 27.6991 0.0000 -10701.3398 1415.5380 0.0000 0.0000 1767.7174 -7464.3032 299.9177 -9232.0205 -7473.7961 296.1699 -61.1537 -41.0766 30207.4823 -272.0446 -236.8170
ENERGY: 900000 4.0780 17.2505 21.1930 0.0000 -10734.0251 1459.4206 0.0000 0.0000 1778.3844 -7453.6987 301.7275 -9232.0831 -7465.9414 298.9796 -147.9862 -101.5111 30941.6590 -59.6567 -25.4736
ENERGY: 1200000 6.4349 18.9010 21.3750 0.0000 -10735.8026 1434.8681 0.0000 0.0000 1762.4756 -7491.7479 299.0283 -9254.2235 -7466.0055 298.4963 -31.0775 81.8330 30117.4606 -14.3392 32.1208
ENERGY: 1500000 10.3289 16.8719 22.4871 0.0000 -10701.2913 1401.5448 0.0000 0.0000 1793.1070 -7456.9516 304.2254 -9250.0586 -7461.5475 299.3416 -272.6681 -226.1654 30145.2921 -66.0212 -18.5973
TCL: Running FEP window   9: Lambda1 0.39999999999999997 Lambda2 0.44999999999999996 [dLambda 0.04999999999999999]
TCL: Setting parameter firsttimestep to 0
TCL: Setting parameter alchLambda to 0.39999999999999997
Info: NONBONDED TABLE R-SQUARED SPACING: 0.0625
Info: NONBONDED TABLE SIZE: 705 POINTS
TCL: Setting parameter alchLambda2 to 0.44999999999999996
Info: NONBONDED TABLE R-SQUARED SPACING: 0.0625
Info: NONBONDED TABLE SIZE: 705 POINTS
TCL: Running for 1500000 steps
ETITLE: TS BOND ANGLE DIHED IMPRP ELECT VDW BOUNDARY MISC KINETIC TOTAL TEMP POTENTIAL TOTALAVG TEMPAVG PRESSURE GPRESSURE VOLUME PRESSAVG GPRESSAVG
ENERGY: 0 10.3289 16.8719 22.4871 0.0000 -10701.2917 1401.0560 0.0000 0.0000 1792.2259 -7458.3220 304.0759 -9250.5478 -7458.3220 304.0759 -296.2948 -223.4775 30145.2921 -296.2948 -223.4775
ENERGY: 300000 5.9026 20.5427 21.7949 0.0000 -10681.4498 1378.5233 0.0000 0.0000 1749.4554 -7505.2310 296.8193 -9254.6864 -7451.6641 298.8239 -824.3241 -840.8548 30509.1322 -454.9307 -427.1072
ENERGY: 600000 3.4771 19.7354 23.2923 0.0000 -10703.2302 1458.5145 0.0000 0.0000 1796.3577 -7401.8531 304.7769 -9198.2108 -7449.4043 299.3944 270.1472 404.6015 30345.3340 -119.0225 -65.1156
ENERGY: 900000 7.1125 12.3683 23.9937 0.0000 -10698.1664 1490.5894 0.0000 0.0000 1794.7433 -7369.3593 304.5030 -9164.1026 -7456.9528 298.1523 545.7602 667.9934 30201.4803 -25.0429 34.1599
ENERGY: 1200000 2.1875 18.1728 21.8285 0.0000 -10704.9995 1428.9402 0.0000 0.0000 1768.0387 -7465.8317 299.9722 -9233.8705 -7478.7262 296.6070 -142.4234 7.2811 30479.3385 -67.6216 2.0917
ENERGY: 1500000 4.7766 18.6454 26.5170 0.0000 -10611.4843 1345.9472 0.0000 0.0000 1773.2891 -7442.3090 300.8630 -9215.5981 -7468.8456 297.2973 -802.8242 -757.9466 30380.7284 -90.1940 -20.7025
TCL: Running FEP window  10: Lambda1 0.44999999999999996 Lambda2 0.49999999999999994 [dLambda 0.04999999999999999]
TCL: Setting parameter firsttimestep to 0
TCL: Setting parameter alchLambda to 0.44999999999999996
Info: NONBONDED TABLE R-SQUARED SPACING: 0.0625
Info: NONBONDED TABLE SIZE: 705 POINTS
TCL: Setting parameter alchLambda2 to 0.49999999999999994
Info: NONBONDED TABLE R-SQUARED SPACING: 0.0625
Info: NONBONDED TABLE SIZE: 705 POINTS
TCL: Running for 1500000 steps
ETITLE: TS BOND ANGLE DIHED IMPRP ELECT VDW BOUNDARY MISC KINETIC TOTAL TEMP POTENTIAL TOTALAVG TEMPAVG PRESSURE GPRESSURE VOLUME PRESSAVG GPRESSAVG
ENERGY: 0 4.7766 18.6454 26.5170 0.0000 -10611.4844 1346.3894 0.0000 0.0000 1772.4170 -7442.7390 300.7150 -9215.1560 -7442.7390 300.7150 -833.5937 -747.1721 30380.7284 -833.5937 -747.1721
ENERGY: 300000 4.9951 18.4460 26.0794 0.0000 -10622.7465 1411.7318 0.0000 0.0000 1793.9774 -7367.5167 304.3731 -9161.4941 -7435.5789 298.6340 -81.8123 16.9478 30513.2148 -126.6879 -32.0003
ENERGY: 600000 5.2611 19.8231 23.6273 0.0000 -10635.9488 1397.6046 0.0000 0.0000 1777.6468 -7411.9858 301.6023 -9189.6326 -7415.2806 300.6665 -129.2211 -111.9483 30438.5200 -181.5420 -104.7581
ENERGY: 900000 3.2815 13.7208 31.2529 0.0000 -10706.7155 1434.1026 0.0000 0.0000 1827.9478 -7396.4099 310.1366 -9224.3577 -7416.6716 301.3316 -2.7465 5.4038 30263.8525 -39.2382 28.1303
ENERGY: 1200000 3.6545 16.2793 23.0743 0.0000 -10686.4593 1428.9701 0.0000 0.0000 1815.1388 -7399.3422 307.9634 -9214.4810 -7407.8376 302.1712 60.3221 76.5612 30207.5770 -75.3167 -11.0704
ENERGY: 1500000 6.9530 18.5736 21.6716 0.0000 -10455.0089 1289.0023 0.0000 0.0000 1773.1555 -7345.6530 300.8403 -9118.8084 -7410.1369 302.4057 -876.2160 -795.4531 30782.6390 -139.6332 -77.9183
TCL: Running FEP window  11: Lambda1 0.49999999999999994 Lambda2 0.5499999999999999 [dLambda 0.04999999999999999]
TCL: Setting parameter firsttimestep to 0
TCL: Setting parameter alchLambda to 0.49999999999999994
Info: NONBONDED TABLE R-SQUARED SPACING: 0.0625
Info: NONBONDED TABLE SIZE: 705 POINTS
TCL: Setting parameter alchLambda2 to 0.5499999999999999
Info: NONBONDED TABLE R-SQUARED SPACING: 0.0625
Info: NONBONDED TABLE SIZE: 705 POINTS
TCL: Running for 1500000 steps
ETITLE: TS BOND ANGLE DIHED IMPRP ELECT VDW BOUNDARY MISC KINETIC TOTAL TEMP POTENTIAL TOTALAVG TEMPAVG PRESSURE GPRESSURE VOLUME PRESSAVG GPRESSAVG
ENERGY: 0 6.9530 18.5736 21.6716 0.0000 -10455.0099 1288.5826 0.0000 0.0000 1772.2787 -7346.9504 300.6916 -9119.2291 -7346.9504 300.6916 -866.2540 -789.0378 30782.6390 -866.2540 -789.0378
ENERGY: 300000 4.0989 13.7197 24.3708 0.0000 -10711.4729 1431.4601 0.0000 0.0000 1698.0501 -7539.7734 288.0977 -9237.8234 -7418.5577 293.3005 -232.0775 -155.1463 30510.0217 -409.0087 -338.4660
ENERGY: 600000 3.5260 18.9415 22.3569 0.0000 -10794.8158 1481.8632 0.0000 0.0000 1775.0555 -7493.0728 301.1627 -9268.1282 -7428.9586 294.9644 255.6885 281.3015 30098.3154 -390.8753 -338.0683
ENERGY: 900000 2.3225 13.5754 24.2858 0.0000 -10718.7213 1480.0231 0.0000 0.0000 1803.1116 -7395.4030 305.9228 -9198.5146 -7443.1287 296.0649 601.8574 690.0646 30064.2187 -268.6119 -217.6429
ENERGY: 1200000 2.4238 19.5901 23.2167 0.0000 -10618.8192 1448.1551 0.0000 0.0000 1805.5459 -7319.8876 306.3358 -9125.4335 -7429.9669 297.3067 119.0052 187.3195 30744.6456 -186.3124 -126.2410
ENERGY: 1500000 4.8427 19.0639 21.7863 0.0000 -10667.7333 1416.3449 0.0000 0.0000 1725.7143 -7479.9812 292.7913 -9205.6955 -7432.6653 297.2350 -295.4851 -222.2804 30408.1304 -145.8855 -79.1506
TCL: Running FEP window  12: Lambda1 0.5499999999999999 Lambda2 0.6    [dLambda 0.050000000000000044]
TCL: Setting parameter firsttimestep to 0
TCL: Setting parameter alchLambda to 0.5499999999999999
Info: NONBONDED TABLE R-SQUARED SPACING: 0.0625
Info: NONBONDED TABLE SIZE: 705 POINTS
TCL: Setting parameter alchLambda2 to 0.6
Info: NONBONDED TABLE R-SQUARED SPACING: 0.0625
Info: NONBONDED TABLE SIZE: 705 POINTS
TCL: Running for 1500000 steps
ETITLE: TS BOND ANGLE DIHED IMPRP ELECT VDW BOUNDARY MISC KINETIC TOTAL TEMP POTENTIAL TOTALAVG TEMPAVG PRESSURE GPRESSURE VOLUME PRESSAVG GPRESSAVG
ENERGY: 0 4.8427 19.0639 21.7863 0.0000 -10667.1032 1418.1929 0.0000 0.0000 1724.8210 -7478.3964 292.6397 -9203.2174 -7478.3964 292.6397 -279.3164 -192.9788 30408.1304 -279.3164 -192.9788
ENERGY: 300000 2.6895 17.0163 25.5443 0.0000 -10611.8895 1407.3952 0.0000 0.0000 1792.8138 -7366.4305 304.1756 -9159.2443 -7414.0827 299.7869 -58.5118 -37.0205 30397.8968 30.2188 74.5262
ENERGY: 600000 5.1149 17.7572 24.2506 0.0000 -10538.5483 1320.0967 0.0000 0.0000 1753.3430 -7417.9860 297.4789 -9171.3290 -7414.3268 300.5379 -806.6441 -669.0360 30382.0203 -155.8128 -85.1906
ENERGY: 900000 6.1136 15.0827 25.7359 0.0000 -10802.7311 1520.4264 0.0000 0.0000 1788.6910 -7446.6815 303.4761 -9235.3725 -7428.9816 299.7588 436.9378 527.4381 30484.2379 -120.0844 -46.4557
ENERGY: 1200000 8.5028 20.8868 24.6553 0.0000 -10603.0818 1418.4793 0.0000 0.0000 1761.4745 -7369.0831 298.8585 -9130.5576 -7425.3362 299.8944 -79.0158 10.6636 30863.9916 -129.1293 -65.1284
ENERGY: 1500000 5.0064 29.3292 24.0513 0.0000 -10661.7328 1404.7445 0.0000 0.0000 1802.8121 -7395.7893 305.8720 -9198.6014 -7423.6426 301.1862 -199.0926 -174.7288 30187.1838 -160.1576 -94.2147
TCL: Running FEP window  13: Lambda1 0.6    Lambda2 0.65   [dLambda 0.050000000000000044]
TCL: Setting parameter firsttimestep to 0
TCL: Setting parameter alchLambda to 0.6
Info: NONBONDED TABLE R-SQUARED SPACING: 0.0625
Info: NONBONDED TABLE SIZE: 705 POINTS
TCL: Setting parameter alchLambda2 to 0.65
Info: NONBONDED TABLE R-SQUARED SPACING: 0.0625
Info: NONBONDED TABLE SIZE: 705 POINTS
TCL: Running for 1500000 steps
ETITLE: TS BOND ANGLE DIHED IMPRP ELECT VDW BOUNDARY MISC KINETIC TOTAL TEMP POTENTIAL TOTALAVG TEMPAVG PRESSURE GPRESSURE VOLUME PRESSAVG GPRESSAVG
ENERGY: 0 5.0064 29.3292 24.0513 0.0000 -10662.1805 1406.3337 0.0000 0.0000 1801.9354 -7395.5245 305.7232 -9197.4599 -7395.5245 305.7232 -221.6753 -147.9064 30187.1838 -221.6753 -147.9064
ENERGY: 300000 2.7920 17.4438 22.9862 0.0000 -10608.8452 1401.1438 0.0000 0.0000 1741.2850 -7423.1943 295.4331 -9164.4794 -7440.2716 298.4846 -233.3848 -158.1306 30886.7063 -156.1352 -102.5847
ENERGY: 600000 2.6794 16.3711 22.8304 0.0000 -10607.8264 1402.3449 0.0000 0.0000 1808.6224 -7354.9782 306.8578 -9163.6006 -7426.9847 298.9962 -119.6612 -132.5919 30927.4259 -109.7218 -56.4356
ENERGY: 900000 8.7181 18.4198 24.8170 0.0000 -10670.7496 1391.4739 0.0000 0.0000 1746.0076 -7481.3132 296.2343 -9227.3209 -7432.4662 298.9710 -601.2314 -527.7570 30377.3349 -220.9172 -161.9319
ENERGY: 1200000 5.3791 19.0921 22.7573 0.0000 -10672.7481 1396.5060 0.0000 0.0000 1776.4640 -7452.5496 301.4017 -9229.0136 -7437.9530 298.8230 -331.4475 -275.0281 30435.2484 -240.8725 -179.9212
ENERGY: 1500000 8.3535 15.3177 24.2196 0.0000 -10679.6988 1453.6453 0.0000 0.0000 1750.2583 -7427.9043 296.9555 -9178.1626 -7441.4441 298.8689 -366.1933 -224.1702 30798.3263 -254.1486 -187.5176
TCL: Running FEP window  14: Lambda1 0.65   Lambda2 0.7000000000000001 [dLambda 0.050000000000000044]
TCL: Setting parameter firsttimestep to 0
TCL: Setting parameter alchLambda to 0.65
Info: NONBONDED TABLE R-SQUARED SPACING: 0.0625
Info: NONBONDED TABLE SIZE: 705 POINTS
TCL: Setting parameter alchLambda2 to 0.7000000000000001
Info: NONBONDED TABLE R-SQUARED SPACING: 0.0625
Info: NONBONDED TABLE SIZE: 705 POINTS
TCL: Running for 1500000 steps
ETITLE: TS BOND ANGLE DIHED IMPRP ELECT VDW BOUNDARY MISC KINETIC TOTAL TEMP POTENTIAL TOTALAVG TEMPAVG PRESSURE GPRESSURE VOLUME PRESSAVG GPRESSAVG
ENERGY: 0 8.3535 15.3177 24.2196 0.0000 -10679.6602 1453.2236 0.0000 0.0000 1749.3816 -7429.1642 296.8068 -9178.5457 -7429.1642 296.8068 -309.5036 -218.7840 30798.3263 -309.5036 -218.7840
ENERGY: 300000 4.4470 15.7075 23.9575 0.0000 -10671.9337 1445.1260 0.0000 0.0000 1803.3948 -7379.3008 305.9709 -9182.6956 -7434.7740 298.5262 125.9821 250.5738 30636.4426 -189.9123 -119.4125
ENERGY: 600000 2.6134 12.1061 25.5736 0.0000 -10653.2622 1456.9078 0.0000 0.0000 1784.5310 -7371.5303 302.7703 -9156.0613 -7407.8184 302.0326 427.2152 450.7195 30446.9647 -32.1886 20.8850
ENERGY: 900000 4.8233 21.3032 28.3786 0.0000 -10603.8102 1330.2720 0.0000 0.0000 1751.6910 -7467.3422 297.1986 -9219.0332 -7426.1179 300.8711 -987.8613 -930.0579 30821.2775 -47.1083 0.8550
ENERGY: 1200000 1.5211 18.7581 22.6408 0.0000 -10644.3393 1391.8175 0.0000 0.0000 1706.1534 -7503.4483 289.4725 -9209.6017 -7430.7671 300.7263 -428.4664 -348.8586 30754.0917 -83.0543 -35.4395
ENERGY: 1500000 4.7834 14.8260 23.5444 0.0000 -10791.9878 1487.0059 0.0000 0.0000 1740.7894 -7521.0386 295.3490 -9261.8280 -7426.5596 300.8280 76.0963 116.5784 30644.3646 -127.9368 -74.3762
TCL: Running FEP window  15: Lambda1 0.7000000000000001 Lambda2 0.7500000000000001 [dLambda 0.050000000000000044]
TCL: Setting parameter firsttimestep to 0
TCL: Setting parameter alchLambda to 0.7000000000000001
Info: NONBONDED TABLE R-SQUARED SPACING: 0.0625
Info: NONBONDED TABLE SIZE: 705 POINTS
TCL: Setting parameter alchLambda2 to 0.7500000000000001
Info: NONBONDED TABLE R-SQUARED SPACING: 0.0625
Info: NONBONDED TABLE SIZE: 705 POINTS
TCL: Running for 1500000 steps
ETITLE: TS BOND ANGLE DIHED IMPRP ELECT VDW BOUNDARY MISC KINETIC TOTAL TEMP POTENTIAL TOTALAVG TEMPAVG PRESSURE GPRESSURE VOLUME PRESSAVG GPRESSAVG
ENERGY: 0 4.7834 14.8260 23.5444 0.0000 -10792.3758 1486.2031 0.0000 0.0000 1739.8550 -7523.1638 295.1904 -9263.0188 -7523.1638 295.1904 47.3936 118.9482 30644.3646 47.3936 118.9482
ENERGY: 300000 3.2426 13.8206 22.2676 0.0000 -10742.7078 1457.1653 0.0000 0.0000 1764.2859 -7481.9258 299.3355 -9246.2117 -7487.5501 297.1452 34.1254 89.8415 30236.6618 -87.4990 -4.1500
ENERGY: 600000 5.0612 15.3927 25.3352 0.0000 -10639.3462 1404.0083 0.0000 0.0000 1790.4651 -7399.0838 303.7771 -9189.5489 -7451.6012 299.5287 -77.3083 -51.3554 30309.7112 -229.9936 -151.4748
ENERGY: 900000 4.0484 13.9323 21.8383 0.0000 -10776.1903 1469.7147 0.0000 0.0000 1721.0055 -7545.6512 291.9924 -9266.6566 -7462.7511 300.2343 412.2557 450.3160 30235.9805 -51.8540 25.8765
ENERGY: 1200000 2.6834 16.7319 25.5599 0.0000 -10728.6851 1435.2134 0.0000 0.0000 1743.1491 -7505.3474 295.7493 -9248.4964 -7468.8109 298.9165 222.9493 236.5396 30156.3832 -127.2036 -59.5104
ENERGY: 1500000 6.4973 19.1843 24.3547 0.0000 -10780.5638 1427.5416 0.0000 0.0000 1779.0557 -7523.9302 301.8414 -9302.9859 -7457.6014 299.6990 -268.8905 -190.8397 30127.6843 -160.9777 -92.4623
TCL: Running FEP window  16: Lambda1 0.7500000000000001 Lambda2 0.8000000000000002 [dLambda 0.050000000000000044]
TCL: Setting parameter firsttimestep to 0
TCL: Setting parameter alchLambda to 0.7500000000000001
Info: NONBONDED TABLE R-SQUARED SPACING: 0.0625
Info: NONBONDED TABLE SIZE: 705 POINTS
TCL: Setting parameter alchLambda2 to 0.8000000000000002
Info: NONBONDED TABLE R-SQUARED SPACING: 0.0625
Info: NONBONDED TABLE SIZE: 705 POINTS
TCL: Running for 1500000 steps
ETITLE: TS BOND ANGLE DIHED IMPRP ELECT VDW BOUNDARY MISC KINETIC TOTAL TEMP POTENTIAL TOTALAVG TEMPAVG PRESSURE GPRESSURE VOLUME PRESSAVG GPRESSAVG
ENERGY: 0 6.4973 19.1843 24.3547 0.0000 -10781.0917 1427.9996 0.0000 0.0000 1778.1487 -7524.9071 301.6875 -9303.0558 -7524.9071 301.6875 -258.1551 -173.1593 30127.6843 -258.1551 -173.1593
ENERGY: 300000 6.2956 20.5599 26.8090 0.0000 -10815.0758 1522.2898 0.0000 0.0000 1775.8632 -7463.2583 301.2997 -9239.1215 -7485.8166 298.0537 617.3721 646.4342 30223.9082 282.5512 348.6065
ENERGY: 600000 8.8037 18.3155 23.9101 0.0000 -10615.5472 1331.1888 0.0000 0.0000 1757.0785 -7476.2506 298.1127 -9233.3291 -7487.3653 297.1798 -648.3778 -644.5423 30069.1158 183.0944 226.7674
ENERGY: 900000 2.4515 15.6128 24.7916 0.0000 -10683.9530 1441.8849 0.0000 0.0000 1789.6068 -7409.6053 303.6315 -9199.2121 -7483.2754 297.3576 333.6956 418.1974 30457.4196 130.1819 179.5614
ENERGY: 1200000 7.6968 22.3458 25.0284 0.0000 -10661.1100 1390.0159 0.0000 0.0000 1826.5833 -7389.4399 309.9051 -9216.0232 -7470.8912 299.5940 -445.7944 -413.9875 30662.2443 8.8888 59.4971
ENERGY: 1500000 1.4323 15.1470 24.0187 0.0000 -10639.5288 1410.1574 0.0000 0.0000 1774.1032 -7414.6704 301.0011 -9188.7736 -7465.4267 299.4533 0.4779 54.2560 30462.2621 -40.4330 11.3224
TCL: Running FEP window  17: Lambda1 0.8000000000000002 Lambda2 0.8500000000000002 [dLambda 0.050000000000000044]
TCL: Setting parameter firsttimestep to 0
TCL: Setting parameter alchLambda to 0.8000000000000002
Info: NONBONDED TABLE R-SQUARED SPACING: 0.0625
Info: NONBONDED TABLE SIZE: 705 POINTS
TCL: Setting parameter alchLambda2 to 0.8500000000000002
Info: NONBONDED TABLE R-SQUARED SPACING: 0.0625
Info: NONBONDED TABLE SIZE: 705 POINTS
TCL: Running for 1500000 steps
ETITLE: TS BOND ANGLE DIHED IMPRP ELECT VDW BOUNDARY MISC KINETIC TOTAL TEMP POTENTIAL TOTALAVG TEMPAVG PRESSURE GPRESSURE VOLUME PRESSAVG GPRESSAVG
ENERGY: 0 1.4323 15.1470 24.0187 0.0000 -10641.2238 1410.4200 0.0000 0.0000 1773.1948 -7417.0110 300.8470 -9190.2058 -7417.0110 300.8470 -25.5156 71.6533 30462.2621 -25.5156 71.6533
ENERGY: 300000 5.8233 14.6154 22.6696 0.0000 -10775.7222 1415.4181 0.0000 0.0000 1770.6667 -7546.5290 300.4181 -9317.1958 -7488.0806 298.9646 -297.8246 -161.0671 29993.8060 56.7156 147.1644
ENERGY: 600000 4.1544 15.8020 26.3658 0.0000 -10532.5923 1318.3867 0.0000 0.0000 1781.5749 -7386.3085 302.2688 -9167.8834 -7459.2616 300.0574 -967.1628 -867.9350 30799.6877 -362.8216 -273.4465
ENERGY: 900000 3.3946 13.1735 24.7058 0.0000 -10714.8458 1440.2291 0.0000 0.0000 1798.4781 -7434.8648 305.1367 -9233.3429 -7459.5561 300.0613 250.2393 272.5803 30313.3902 -196.3369 -125.0002
ENERGY: 1200000 1.8139 17.6073 24.0397 0.0000 -10687.8135 1392.4588 0.0000 0.0000 1784.8524 -7467.0415 302.8249 -9251.8939 -7453.9670 299.9329 -346.8996 -278.2259 30317.0506 -176.3490 -108.6397
ENERGY: 1500000 5.6006 23.1012 25.5207 0.0000 -10596.1008 1387.6352 0.0000 0.0000 1748.5163 -7405.7267 296.6600 -9154.2430 -7446.6558 300.3965 -122.1388 -129.4089 30465.9396 -168.1606 -109.0246
TCL: Running FEP window  18: Lambda1 0.8500000000000002 Lambda2 0.9000000000000002 [dLambda 0.050000000000000044]
TCL: Setting parameter firsttimestep to 0
TCL: Setting parameter alchLambda to 0.8500000000000002
Info: NONBONDED TABLE R-SQUARED SPACING: 0.0625
Info: NONBONDED TABLE SIZE: 705 POINTS
TCL: Setting parameter alchLambda2 to 0.9000000000000002
Info: NONBONDED TABLE R-SQUARED SPACING: 0.0625
Info: NONBONDED TABLE SIZE: 705 POINTS
TCL: Running for 1500000 steps
ETITLE: TS BOND ANGLE DIHED IMPRP ELECT VDW BOUNDARY MISC KINETIC TOTAL TEMP POTENTIAL TOTALAVG TEMPAVG PRESSURE GPRESSURE VOLUME PRESSAVG GPRESSAVG
ENERGY: 0 5.6006 23.1012 25.5207 0.0000 -10597.5933 1388.2669 0.0000 0.0000 1747.6347 -7407.4691 296.5104 -9155.1038 -7407.4691 296.5104 -189.2950 -105.6048 30465.9396 -189.2950 -105.6048
ENERGY: 300000 2.3392 14.6421 24.5125 0.0000 -10758.8697 1442.9076 0.0000 0.0000 1754.6256 -7519.8428 297.6965 -9274.4684 -7491.1435 296.1802 -142.2237 -64.3265 30739.7430 155.1921 229.9834
ENERGY: 600000 2.5981 16.3286 23.4147 0.0000 -10920.4549 1522.7497 0.0000 0.0000 1831.4298 -7523.9340 310.7274 -9355.3638 -7498.3367 297.9184 725.6469 843.6095 29875.0126 308.7939 390.2842
ENERGY: 900000 3.9886 22.0852 20.8540 0.0000 -10597.4900 1376.0482 0.0000 0.0000 1786.6198 -7387.8941 303.1247 -9174.5140 -7495.9558 299.2823 -338.5798 -189.5576 30701.9916 177.0255 252.7556
ENERGY: 1200000 4.1459 16.7654 22.0795 0.0000 -10624.1516 1384.5568 0.0000 0.0000 1751.7419 -7444.8620 297.2072 -9196.6039 -7487.4511 299.2913 -151.4883 -44.2972 30274.1809 95.4096 170.5512
ENERGY: 1500000 4.5401 18.4624 25.2324 0.0000 -10698.7015 1451.1076 0.0000 0.0000 1801.8773 -7397.4818 305.7134 -9199.3591 -7470.7244 299.3782 358.6087 337.3059 30710.6184 56.5006 121.3504
TCL: Running FEP window  19: Lambda1 0.9000000000000002 Lambda2 0.9500000000000003 [dLambda 0.050000000000000044]
TCL: Setting parameter firsttimestep to 0
TCL: Setting parameter alchLambda to 0.9000000000000002
Info: NONBONDED TABLE R-SQUARED SPACING: 0.0625
Info: NONBONDED TABLE SIZE: 705 POINTS
TCL: Setting parameter alchLambda2 to 0.9500000000000003
Info: NONBONDED TABLE R-SQUARED SPACING: 0.0625
Info: NONBONDED TABLE SIZE: 705 POINTS
TCL: Running for 1500000 steps
ETITLE: TS BOND ANGLE DIHED IMPRP ELECT VDW BOUNDARY MISC KINETIC TOTAL TEMP POTENTIAL TOTALAVG TEMPAVG PRESSURE GPRESSURE VOLUME PRESSAVG GPRESSAVG
ENERGY: 0 4.5401 18.4624 25.2324 0.0000 -10699.8378 1451.0624 0.0000 0.0000 1801.0404 -7399.5002 305.5714 -9200.5406 -7399.5002 305.5714 276.0782 352.9422 30710.6184 276.0782 352.9422
ENERGY: 300000 3.7756 20.7678 26.2045 0.0000 -10557.8545 1382.8720 0.0000 0.0000 1795.9834 -7328.2511 304.7134 -9124.2345 -7406.5662 302.7631 5.6738 -18.7581 30721.0440 140.6869 172.5309
ENERGY: 600000 4.0794 13.8386 24.9763 0.0000 -10696.7780 1414.6942 0.0000 0.0000 1769.1369 -7470.0526 300.1585 -9239.1895 -7430.0760 301.1229 -279.4710 -186.3741 30810.4130 97.5310 143.5895
ENERGY: 900000 6.6147 16.2478 21.2609 0.0000 -10638.6585 1409.3645 0.0000 0.0000 1718.2258 -7466.9448 291.5208 -9185.1705 -7452.6010 298.8429 -239.4175 -141.2483 30671.2681 90.3355 159.4700
ENERGY: 1200000 1.0214 15.2402 22.7859 0.0000 -10566.5336 1342.6812 0.0000 0.0000 1726.7155 -7458.0894 292.9612 -9184.8049 -7452.5169 298.2701 -545.3524 -465.6913 30474.5885 -32.0938 37.2638
ENERGY: 1500000 5.3875 15.0347 23.8813 0.0000 -10764.0694 1470.9279 0.0000 0.0000 1740.3295 -7508.5084 295.2710 -9248.8380 -7460.0634 298.1481 232.2448 266.0278 30556.1706 -38.4787 23.3745
TCL: Running FEP window  20: Lambda1 0.9500000000000003 Lambda2 1.0    [dLambda 0.04999999999999971]
TCL: Setting parameter firsttimestep to 0
TCL: Setting parameter alchLambda to 0.9500000000000003
Info: NONBONDED TABLE R-SQUARED SPACING: 0.0625
Info: NONBONDED TABLE SIZE: 705 POINTS
TCL: Setting parameter alchLambda2 to 1.0
Info: NONBONDED TABLE R-SQUARED SPACING: 0.0625
Info: NONBONDED TABLE SIZE: 705 POINTS
TCL: Running for 1500000 steps
ETITLE: TS BOND ANGLE DIHED IMPRP ELECT VDW BOUNDARY MISC KINETIC TOTAL TEMP POTENTIAL TOTALAVG TEMPAVG PRESSURE GPRESSURE VOLUME PRESSAVG GPRESSAVG
ENERGY: 0 5.3875 15.0347 23.8813 0.0000 -10765.3740 1471.1052 0.0000 0.0000 1739.4208 -7510.5446 295.1168 -9249.9653 -7510.5446 295.1168 191.8664 283.6155 30556.1706 191.8664 283.6155
ENERGY: 300000 5.1975 18.8810 23.3280 0.0000 -10743.8986 1459.3313 0.0000 0.0000 1788.8839 -7448.2769 303.5089 -9237.1608 -7438.4495 299.3261 140.8411 145.1233 30621.3783 -46.4337 -6.5679
ENERGY: 600000 5.5173 18.9303 20.9750 0.0000 -10695.0125 1482.5850 0.0000 0.0000 1701.7483 -7465.2567 288.7251 -9167.0049 -7446.2296 298.2974 654.0601 706.6765 30463.3506 113.7620 155.7222
ENERGY: 900000 2.6120 14.1131 23.4168 0.0000 -10886.8653 1543.4646 0.0000 0.0000 1762.6250 -7540.6338 299.0537 -9303.2588 -7466.9849 297.2741 989.7050 1007.1535 30297.6773 148.7225 191.9179
ENERGY: 1200000 6.7027 14.7237 23.5724 0.0000 -10760.9734 1419.7303 0.0000 0.0000 1673.1535 -7623.0908 283.8736 -9296.2443 -7483.0330 295.5252 -420.0901 -386.2777 30593.4683 103.3543 148.4709
ENERGY: 1500000 4.0292 14.2885 21.4918 0.0000 -10690.7422 1404.0260 0.0000 0.0000 1779.6771 -7467.2297 301.9468 -9246.9068 -7474.3150 296.9690 -365.7686 -263.1890 30773.6318 70.2944 119.9682
TCL: Exiting due to exit command.
