Info: SIMULATION PARAMETERS:
Info: TIMESTEP               2
Info: NUMBER OF STEPS        0
Info: STEPS PER CYCLE        10
Info: PERIODIC CELL BASIS 1  34.6946 0 0
Info: PERIODIC CELL BASIS 2  0 28.2773 0
Info: PERIODIC CELL BASIS 3  0 0 30.7174
Info: PERIODIC CELL CENTER   0 0 0
Info: WRAPPING WATERS AROUND PERIODIC BOUNDARIES ON OUTPUT.
Info: WRAPPING ALL CLUSTERS AROUND PERIODIC BOUNDARIES ON OUTPUT.
Info: FIRST LDB TIMESTEP     50
Info: LAST LDB TIMESTEP     -1
Info: HOM BACKGROUND SCALING 1
Info: PME BACKGROUND SCALING 1
Info: MIN ATOMS PER PATCH    40
Info: EMPTY PATCH LOAD       40 ATOMS
Info: VELOCITY FILE          mobley_3690931_equil.vel
Info: CENTER OF MASS MOVING INITIALLY? NO
Info: DIELECTRIC             1
Info: EXCLUDE                SCALED ONE-FOUR
Info: 1-4 ELECTROSTATICS SCALED BY 0.833333
Info: MODIFIED 1-4 VDW PARAMETERS WILL BE USED
Info: DCD FILENAME           mobley_3690931_prod.dcd
Info: DCD FREQUENCY          100000
Info: DCD FIRST STEP         100000
Info: DCD FILE WILL CONTAIN UNIT CELL DATA
Info: XST FILENAME           mobley_3690931_prod.xst
Info: XST FREQUENCY          100000
Info: NO VELOCITY DCD OUTPUT
Info: NO FORCE DCD OUTPUT
Info: OUTPUT FILENAME        mobley_3690931_prod
Info: BINARY OUTPUT FILES WILL BE USED
Info: RESTART FILENAME       mobley_3690931_prod.restart
Info: RESTART FREQUENCY      100000
Info: BINARY RESTART FILES WILL BE USED
Info: CUTOFF                 9
Info: PAIRLIST DISTANCE      11
Info: PAIRLIST SHRINK RATE   0.01
Info: PAIRLIST GROW RATE     0.01
Info: PAIRLIST TRIGGER       0.3
Info: PAIRLISTS PER CYCLE    2
Info: PAIRLISTS ENABLED
Info: MARGIN                 2
Info: HYDROGEN GROUP CUTOFF  2.5
Info: PATCH DIMENSION        15.5
Info: ENERGY OUTPUT STEPS    100000
Info: ENERGY EVALUATION STEPS    100000
Info: OUTPUT ENERGY PRECISION 4
Info: CROSSTERM ENERGY INCLUDED IN DIHEDRAL
Info: TIMING OUTPUT STEPS    1000000
Info: PRESSURE OUTPUT STEPS  100000
Info: ALCHEMICAL FEP ON
Info: FEP CURRENT LAMBDA VALUE     0
Info: FEP COMPARISON LAMBDA VALUE  0.05
Info: FEP INTRA-ALCHEMICAL NON-BONDED INTERACTIONS WILL BE RETAINED
Info: FEP INTRA-ALCHEMICAL BONDED INTERACTIONS WILL BE RETAINED
Info: FEP VDW SHIFTING COEFFICIENT 5
Info: FEP ELEC. ACTIVE FOR ANNIHILATED PARTICLES BETWEEN LAMBDA = 0 AND LAMBDA = 0.5
Info: FEP ELEC. ACTIVE FOR EXNIHILATED PARTICLES BETWEEN LAMBDA = 0.5 AND LAMBDA = 1
Info: FEP VDW ACTIVE FOR ANNIHILATED PARTICLES BETWEEN LAMBDA = 0 AND LAMBDA = 1
Info: FEP VDW ACTIVE FOR EXNIHILATED PARTICLES BETWEEN LAMBDA = 0 AND LAMBDA = 1
Info: FEP BOND ACTIVE FOR ANNIHILATED PARTICLES BETWEEN LAMBDA = 1 AND LAMBDA = 1
Info: FEP BOND ACTIVE FOR EXNIHILATED PARTICLES BETWEEN LAMBDA = 0 AND LAMBDA = 0
Info: LANGEVIN DYNAMICS ACTIVE
Info: LANGEVIN TEMPERATURE   300
Info: LANGEVIN USING BBK INTEGRATOR
Info: LANGEVIN DAMPING COEFFICIENT IS 1 INVERSE PS
Info: LANGEVIN DYNAMICS APPLIED TO HYDROGENS
Info: LANGEVIN PISTON PRESSURE CONTROL ACTIVE
Info:        TARGET PRESSURE IS 1.01325 BAR
Info:     OSCILLATION PERIOD IS 50 FS
Info:             DECAY TIME IS 25 FS
Info:     PISTON TEMPERATURE IS 300 K
Info:       PRESSURE CONTROL IS GROUP-BASED
Info:    INITIAL STRAIN RATE IS -0.000707676 -0.000707676 -0.000707676
Info:       CELL FLUCTUATION IS ISOTROPIC
Info: PARTICLE MESH EWALD (PME) ACTIVE
Info: PME TOLERANCE               1e-06
Info: PME EWALD COEFFICIENT       0.348832
Info: PME INTERPOLATION ORDER     4
Info: PME GRID DIMENSIONS         36 32 32
Info: PME MAXIMUM GRID SPACING    1
Info: PME CALCULATION WILL BE PERFORMED ON GPU
Info: FULL ELECTROSTATIC EVALUATION FREQUENCY      2
Info: USING VERLET I (r-RESPA) MTS SCHEME.
Info: C1 SPLITTING OF LONG RANGE ELECTROSTATICS
Info: PLACING ATOMS IN PATCHES BY HYDROGEN GROUPS
Info: RIGID BONDS TO HYDROGEN : ALL
Info:         ERROR TOLERANCE : 1e-08
Info:          MAX ITERATIONS : 100
Info: RIGID WATER USING SETTLE ALGORITHM
Info: RANDOM NUMBER SEED     1743978629
Info: USE HYDROGEN BONDS?    NO
Info: Using AMBER format force field!
Info: AMBER PARM FILE        mobley_3690931.prmtop
Info: COORDINATE PDB         mobley_3690931.pdb
Info: Exclusions will be read from PARM file!
Info: SCNB (VDW SCALING)     2
Info: USING ARITHMETIC MEAN TO COMBINE L-J SIGMA PARAMETERS
Info: BINARY COORDINATES     mobley_3690931_equil.coor
Info: SUMMARY OF PARAMETERS:
Info: 9 BONDS
Info: 13 ANGLES
Info:   13 HARMONIC
Info:   0 COSINE-BASED
Info: 17 DIHEDRAL
Info: 0 IMPROPER
Info: 0 CROSSTERM
Info: 0 VDW
Info: 36 VDW_PAIRS
Info: 0 NBTHOLE_PAIRS
Info: To read alchdata from file: mobley_3690931.pdb
Info: To read alchflag data from column: 5
Info: STRUCTURE SUMMARY:
Info: 2930 ATOMS
Info: 2929 BONDS
Info: 40 ANGLES
Info: 58 DIHEDRALS
Info: 0 IMPROPERS
Info: 0 CROSSTERMS
Info: 3016 EXCLUSIONS
Info: 2921 RIGID BONDS
Info: ALCH: 0 ATOMS TO DISAPPEAR IN FINAL STATE
Info: ALCH: 23 ATOMS TO APPEAR IN FINAL STATE
Info: 5869 DEGREES OF FREEDOM
Info: 978 HYDROGEN GROUPS
Info: 4 ATOMS IN LARGEST HYDROGEN GROUP
Info: 978 MIGRATION GROUPS
Info: 4 ATOMS IN LARGEST MIGRATION GROUP
Info: TOTAL MASS = 17587.7 amu
Info: TOTAL CHARGE = 0 e
Info: MASS DENSITY = 0.969137 g/cm^3
Info: ATOM DENSITY = 0.0972265 atoms/A^3
Info: ADDED 0 IMPLICIT EXCLUSIONS
Info: NONBONDED TABLE R-SQUARED SPACING: 0.0625
Info: NONBONDED TABLE SIZE: 705 POINTS
Info: REMOVING COM VELOCITY -0.0556294 0.0648498 -0.195212
Info: Use 3D box decompostion in PME FFT.
Info: Updated CUDA force table with 4096 elements.
Info: Updated CUDA LJ table with 8 x 8 elements.
Info: Found 24 unique exclusion lists needing 68 bytes
TCL: Running for 1500000 steps
ETITLE: TS BOND ANGLE DIHED IMPRP ELECT VDW BOUNDARY MISC KINETIC TOTAL TEMP POTENTIAL TOTALAVG TEMPAVG PRESSURE GPRESSURE VOLUME PRESSAVG GPRESSAVG
ENERGY: 0 1.8366 10.8890 5.2671 0.0000 -10620.3414 1450.4484 0.0000 0.0000 1768.0321 -7383.8682 303.1911 -9151.9003 -7383.8682 303.1911 138.6744 214.5353 30135.8044 138.6744 214.5353
ENERGY: 300000 3.6900 9.3138 7.3750 0.0000 -10699.3458 1540.6533 0.0000 0.0000 1782.9556 -7355.3581 305.7502 -9138.3137 -7393.7341 301.2941 1078.7786 1157.3544 29569.5705 95.7773 154.9501
ENERGY: 600000 1.3937 12.7003 5.0947 0.0000 -10554.1665 1391.4662 0.0000 0.0000 1745.6322 -7397.8794 299.3498 -9143.5116 -7393.3863 301.5335 -127.5306 -53.5517 29760.4784 -75.6573 -4.3125
ENERGY: 900000 2.8541 8.6936 4.1008 0.0000 -10634.0279 1387.7864 0.0000 0.0000 1709.0540 -7521.5389 293.0772 -9230.5929 -7416.4075 299.7409 -520.2860 -394.4966 29749.7166 -76.9670 0.0225
ENERGY: 1200000 3.4298 8.9241 2.6669 0.0000 -10610.8664 1417.3648 0.0000 0.0000 1749.7166 -7428.7642 300.0502 -9178.4808 -7412.9483 299.6931 189.3931 291.8798 29592.5375 -50.2852 22.5471
ENERGY: 1500000 9.5078 11.7830 6.7829 0.0000 -10562.7999 1376.8087 0.0000 0.0000 1742.3996 -7415.5180 298.7955 -9157.9175 -7416.4173 299.0248 -611.5834 -498.5706 30193.2509 -27.1954 48.0386
TCL: Running FEP window   2: Lambda1 0.05   Lambda2 0.1    [dLambda 0.05  ]
TCL: Setting parameter firsttimestep to 0
TCL: Setting parameter alchLambda to 0.05
Info: NONBONDED TABLE R-SQUARED SPACING: 0.0625
Info: NONBONDED TABLE SIZE: 705 POINTS
TCL: Setting parameter alchLambda2 to 0.1
Info: NONBONDED TABLE R-SQUARED SPACING: 0.0625
Info: NONBONDED TABLE SIZE: 705 POINTS
TCL: Running for 1500000 steps
ETITLE: TS BOND ANGLE DIHED IMPRP ELECT VDW BOUNDARY MISC KINETIC TOTAL TEMP POTENTIAL TOTALAVG TEMPAVG PRESSURE GPRESSURE VOLUME PRESSAVG GPRESSAVG
ENERGY: 0 9.5078 11.7830 6.7829 0.0000 -10562.8001 1379.5595 0.0000 0.0000 1741.5198 -7413.6471 298.6446 -9155.1669 -7413.6471 298.6446 -578.5413 -487.6572 30193.2509 -578.5413 -487.6572
ENERGY: 300000 3.0035 8.6682 6.2169 0.0000 -10552.0471 1407.0356 0.0000 0.0000 1749.1254 -7377.9975 299.9489 -9127.1229 -7414.6118 297.4797 -97.3504 -19.8299 30340.6569 -64.8407 16.4999
ENERGY: 600000 2.8919 11.8487 5.6633 0.0000 -10540.1655 1334.3772 0.0000 0.0000 1731.7885 -7453.5958 296.9759 -9185.3843 -7419.3426 298.3157 -800.0655 -714.0996 29549.8879 -270.1226 -199.1743
ENERGY: 900000 4.1958 18.2733 3.8206 0.0000 -10628.9912 1454.9566 0.0000 0.0000 1742.9125 -7404.8324 298.8834 -9147.7448 -7400.0846 299.6320 -149.6946 -82.8251 30352.9816 -336.5509 -263.0710
ENERGY: 1200000 2.9409 10.9667 6.2369 0.0000 -10684.1087 1445.1912 0.0000 0.0000 1722.2929 -7496.4800 295.3475 -9218.7730 -7412.0762 299.8779 -334.3348 -306.9903 30159.2714 -293.0580 -226.1505
ENERGY: 1500000 1.7672 14.5764 6.1177 0.0000 -10624.5470 1412.1491 0.0000 0.0000 1706.0123 -7483.9243 292.5556 -9189.9366 -7411.6862 299.8206 -321.8395 -205.3737 29954.4422 -250.6852 -176.1794
TCL: Running FEP window   3: Lambda1 0.1    Lambda2 0.15000000000000002 [dLambda 0.05000000000000002]
TCL: Setting parameter firsttimestep to 0
TCL: Setting parameter alchLambda to 0.1
Info: NONBONDED TABLE R-SQUARED SPACING: 0.0625
Info: NONBONDED TABLE SIZE: 705 POINTS
TCL: Setting parameter alchLambda2 to 0.15000000000000002
Info: NONBONDED TABLE R-SQUARED SPACING: 0.0625
Info: NONBONDED TABLE SIZE: 705 POINTS
TCL: Running for 1500000 steps
ETITLE: TS BOND ANGLE DIHED IMPRP ELECT VDW BOUNDARY MISC KINETIC TOTAL TEMP POTENTIAL TOTALAVG TEMPAVG PRESSURE GPRESSURE VOLUME PRESSAVG GPRESSAVG
ENERGY: 0 1.7672 14.5763 6.1177 0.0000 -10624.5477 1415.4301 0.0000 0.0000 1705.1179 -7481.5384 292.4022 -9186.6563 -7481.5384 292.4022 -280.7645 -194.8865 29954.4422 -280.7645 -194.8865
ENERGY: 300000 1.8571 6.7464 7.3970 0.0000 -10679.3965 1446.6443 0.0000 0.0000 1760.4745 -7456.2771 301.8951 -9216.7517 -7444.9877 298.9083 -19.4332 44.9593 29789.9444 -366.3413 -284.2230
ENERGY: 600000 0.9005 7.8792 7.0141 0.0000 -10485.5088 1381.6173 0.0000 0.0000 1800.6873 -7287.4103 308.7910 -9088.0976 -7414.0058 301.8925 -490.1564 -385.1283 30664.0365 -353.4041 -277.2218
ENERGY: 900000 2.3228 17.1288 3.4403 0.0000 -10503.7494 1402.9455 0.0000 0.0000 1746.5798 -7331.3323 299.5123 -9077.9121 -7394.4916 300.9737 -79.3638 -46.7951 30077.8552 -163.7930 -97.0157
ENERGY: 1200000 2.7792 10.6727 4.6372 0.0000 -10626.4111 1437.6129 0.0000 0.0000 1747.2592 -7423.4499 299.6288 -9170.7091 -7401.8503 300.8778 -115.9318 -71.5851 30172.1697 -90.7253 -31.5046
ENERGY: 1500000 2.6065 12.5888 9.4748 0.0000 -10630.4741 1397.6238 0.0000 0.0000 1743.7069 -7464.4733 299.0197 -9208.1801 -7404.6246 300.3672 -394.9377 -367.5263 29766.6152 -98.4974 -44.8519
TCL: Running FEP window   4: Lambda1 0.15000000000000002 Lambda2 0.2    [dLambda 0.04999999999999999]
TCL: Setting parameter firsttimestep to 0
TCL: Setting parameter alchLambda to 0.15000000000000002
Info: NONBONDED TABLE R-SQUARED SPACING: 0.0625
Info: NONBONDED TABLE SIZE: 705 POINTS
TCL: Setting parameter alchLambda2 to 0.2
Info: NONBONDED TABLE R-SQUARED SPACING: 0.0625
Info: NONBONDED TABLE SIZE: 705 POINTS
TCL: Running for 1500000 steps
ETITLE: TS BOND ANGLE DIHED IMPRP ELECT VDW BOUNDARY MISC KINETIC TOTAL TEMP POTENTIAL TOTALAVG TEMPAVG PRESSURE GPRESSURE VOLUME PRESSAVG GPRESSAVG
ENERGY: 0 2.6065 12.5888 9.4748 0.0000 -10630.4760 1398.2333 0.0000 0.0000 1742.8371 -7464.7355 298.8705 -9207.5726 -7464.7355 298.8705 -428.0010 -360.6476 29766.6152 -428.0010 -360.6476
ENERGY: 300000 3.0362 8.2873 3.8054 0.0000 -10526.1315 1422.8923 0.0000 0.0000 1716.4414 -7371.6689 294.3440 -9088.1103 -7442.5239 296.3440 -85.9810 -104.3132 30726.0561 -65.6450 -22.0295
ENERGY: 600000 0.9039 9.3326 6.4796 0.0000 -10689.2267 1442.7762 0.0000 0.0000 1733.9225 -7495.8119 297.3418 -9229.7344 -7411.7950 300.0676 88.4316 85.2140 29503.6812 -118.9161 -78.4551
ENERGY: 900000 3.5108 9.5376 4.4700 0.0000 -10724.7054 1525.8593 0.0000 0.0000 1726.5725 -7454.7552 296.0814 -9181.3278 -7405.7750 300.4584 529.0123 633.7705 30151.4420 -68.2439 -11.5432
ENERGY: 1200000 0.7517 11.0951 6.3818 0.0000 -10600.0662 1440.7411 0.0000 0.0000 1745.4195 -7395.6771 299.3134 -9141.0966 -7407.3435 300.2335 410.8184 421.8852 29547.2009 -57.6055 1.4545
ENERGY: 1500000 1.4449 14.2054 7.3825 0.0000 -10644.3196 1531.3314 0.0000 0.0000 1757.8347 -7332.1207 301.4424 -9089.9554 -7400.0881 300.6570 1166.8288 1219.6866 29680.4819 -2.0288 62.4411
TCL: Running FEP window   5: Lambda1 0.2    Lambda2 0.25   [dLambda 0.04999999999999999]
TCL: Setting parameter firsttimestep to 0
TCL: Setting parameter alchLambda to 0.2
Info: NONBONDED TABLE R-SQUARED SPACING: 0.0625
Info: NONBONDED TABLE SIZE: 705 POINTS
TCL: Setting parameter alchLambda2 to 0.25
Info: NONBONDED TABLE R-SQUARED SPACING: 0.0625
Info: NONBONDED TABLE SIZE: 705 POINTS
TCL: Running for 1500000 steps
ETITLE: TS BOND ANGLE DIHED IMPRP ELECT VDW BOUNDARY MISC KINETIC TOTAL TEMP POTENTIAL TOTALAVG TEMPAVG PRESSURE GPRESSURE VOLUME PRESSAVG GPRESSAVG
ENERGY: 0 1.4449 14.2054 7.3825 0.0000 -10644.3204 1531.8479 0.0000 0.0000 1756.9499 -7332.4899 301.2906 -9089.4398 -7332.4899 301.2906 1151.6353 1226.9409 29680.4819 1151.6353 1226.9409
ENERGY: 300000 1.3609 6.3637 5.2507 0.0000 -10641.1243 1482.9985 0.0000 0.0000 1706.1830 -7438.9675 292.5849 -9145.1504 -7399.7050 299.3293 812.8471 756.5292 29344.6215 449.3294 502.1545
ENERGY: 600000 3.1774 13.2023 6.7626 0.0000 -10520.6890 1412.3981 0.0000 0.0000 1712.3445 -7372.8042 293.6415 -9085.1487 -7404.9741 298.2879 -78.6777 -79.7005 30540.9066 192.6979 242.4538
ENERGY: 900000 1.3112 8.3867 4.8802 0.0000 -10553.7751 1426.0464 0.0000 0.0000 1769.4471 -7343.7035 303.4337 -9113.1506 -7382.9436 300.6381 31.9195 107.8274 30318.5027 32.4868 80.6790
ENERGY: 1200000 4.3700 7.3082 4.8265 0.0000 -10545.5361 1338.6890 0.0000 0.0000 1786.6595 -7403.6828 306.3854 -9190.3424 -7377.8595 300.7750 -962.7577 -907.2637 30063.3627 -75.8497 -26.6487
ENERGY: 1500000 3.6549 12.2425 5.6884 0.0000 -10621.1304 1431.7962 0.0000 0.0000 1696.9864 -7470.7621 291.0078 -9167.7485 -7388.3122 299.9506 203.9123 246.5904 29562.2343 -28.0292 19.6658
TCL: Running FEP window   6: Lambda1 0.25   Lambda2 0.3    [dLambda 0.04999999999999999]
TCL: Setting parameter firsttimestep to 0
TCL: Setting parameter alchLambda to 0.25
Info: NONBONDED TABLE R-SQUARED SPACING: 0.0625
Info: NONBONDED TABLE SIZE: 705 POINTS
TCL: Setting parameter alchLambda2 to 0.3
Info: NONBONDED TABLE R-SQUARED SPACING: 0.0625
Info: NONBONDED TABLE SIZE: 705 POINTS
TCL: Running for 1500000 steps
ETITLE: TS BOND ANGLE DIHED IMPRP ELECT VDW BOUNDARY MISC KINETIC TOTAL TEMP POTENTIAL TOTALAVG TEMPAVG PRESSURE GPRESSURE VOLUME PRESSAVG GPRESSAVG
ENERGY: 0 3.6549 12.2425 5.6884 0.0000 -10621.1301 1433.7417 0.0000 0.0000 1696.0612 -7469.7415 290.8491 -9165.8027 -7469.7415 290.8491 174.4502 257.7791 29562.2343 174.4502 257.7791
ENERGY: 300000 5.3072 9.2716 3.8648 0.0000 -10574.8640 1375.0506 0.0000 0.0000 1779.2163 -7402.1536 305.1090 -9181.3699 -7389.8198 302.5745 -970.5345 -871.8305 30616.0057 -176.0975 -110.2517
ENERGY: 600000 0.9108 7.1194 5.9637 0.0000 -10734.6059 1536.6971 0.0000 0.0000 1710.4592 -7473.4556 293.3182 -9183.9149 -7422.9415 300.1432 956.2294 986.0701 29503.4283 -54.0536 8.3966
ENERGY: 900000 2.5327 6.8048 4.6507 0.0000 -10710.3603 1554.7002 0.0000 0.0000 1751.6689 -7390.0031 300.3850 -9141.6720 -7427.4720 300.2043 948.9077 967.7418 30138.4051 -46.1452 12.7058
ENERGY: 1200000 4.6399 10.7572 5.9549 0.0000 -10522.0856 1381.6991 0.0000 0.0000 1761.1191 -7357.9154 302.0056 -9119.0345 -7408.6078 300.2596 -275.0252 -201.7580 29684.5392 -35.5906 24.3077
ENERGY: 1500000 3.5821 8.7565 3.9979 0.0000 -10729.6386 1501.3199 0.0000 0.0000 1762.6855 -7449.2967 302.2742 -9211.9821 -7404.5754 300.4717 142.4957 225.9292 30104.1825 -103.8029 -38.8146
TCL: Running FEP window   7: Lambda1 0.3    Lambda2 0.35   [dLambda 0.04999999999999999]
TCL: Setting parameter firsttimestep to 0
TCL: Setting parameter alchLambda to 0.3
Info: NONBONDED TABLE R-SQUARED SPACING: 0.0625
Info: NONBONDED TABLE SIZE: 705 POINTS
TCL: Setting parameter alchLambda2 to 0.35
Info: NONBONDED TABLE R-SQUARED SPACING: 0.0625
Info: NONBONDED TABLE SIZE: 705 POINTS
TCL: Running for 1500000 steps
ETITLE: TS BOND ANGLE DIHED IMPRP ELECT VDW BOUNDARY MISC KINETIC TOTAL TEMP POTENTIAL TOTALAVG TEMPAVG PRESSURE GPRESSURE VOLUME PRESSAVG GPRESSAVG
ENERGY: 0 3.5821 8.7565 3.9979 0.0000 -10729.6384 1502.2884 0.0000 0.0000 1761.8294 -7449.1841 302.1274 -9211.0135 -7449.1841 302.1274 138.8678 235.4459 30104.1825 138.8678 235.4459
ENERGY: 300000 1.4210 10.0679 3.6358 0.0000 -10652.6888 1475.7860 0.0000 0.0000 1740.0081 -7421.7700 298.3854 -9161.7781 -7424.6557 298.5169 649.1718 711.7116 29620.5017 219.3024 280.2066
ENERGY: 600000 2.9309 10.6277 10.7098 0.0000 -10621.9325 1411.8002 0.0000 0.0000 1788.1160 -7397.7479 306.6352 -9185.8639 -7417.9347 301.3087 -290.8717 -205.9414 30057.7837 100.4682 171.0309
ENERGY: 900000 1.7467 6.8740 7.2831 0.0000 -10736.0735 1539.7809 0.0000 0.0000 1770.5621 -7409.8267 303.6249 -9180.3888 -7421.1081 300.6982 821.5500 919.9111 29959.6930 144.8071 209.2276
ENERGY: 1200000 1.6505 8.4689 6.5369 0.0000 -10584.3634 1387.1007 0.0000 0.0000 1733.5737 -7447.0328 297.2820 -9180.6065 -7423.5500 299.9225 -274.4355 -228.7831 29855.1533 58.5696 118.1685
ENERGY: 1500000 1.9714 9.1792 6.2927 0.0000 -10601.2525 1455.4846 0.0000 0.0000 1746.8494 -7381.4753 299.5586 -9128.3247 -7420.0467 299.9384 502.5440 593.7614 29517.3378 64.6241 129.1855
TCL: Running FEP window   8: Lambda1 0.35   Lambda2 0.39999999999999997 [dLambda 0.04999999999999999]
TCL: Setting parameter firsttimestep to 0
TCL: Setting parameter alchLambda to 0.35
Info: NONBONDED TABLE R-SQUARED SPACING: 0.0625
Info: NONBONDED TABLE SIZE: 705 POINTS
TCL: Setting parameter alchLambda2 to 0.39999999999999997
Info: NONBONDED TABLE R-SQUARED SPACING: 0.0625
Info: NONBONDED TABLE SIZE: 705 POINTS
TCL: Running for 1500000 steps
ETITLE: TS BOND ANGLE DIHED IMPRP ELECT VDW BOUNDARY MISC KINETIC TOTAL TEMP POTENTIAL TOTALAVG TEMPAVG PRESSURE GPRESSURE VOLUME PRESSAVG GPRESSAVG
ENERGY: 0 1.9714 9.1792 6.2927 0.0000 -10601.2518 1455.6396 0.0000 0.0000 1745.9513 -7382.2176 299.4045 -9128.1689 -7382.2176 299.4045 513.5904 601.6767 29517.3378 513.5904 601.6767
ENERGY: 300000 1.3611 9.9893 5.0254 0.0000 -10599.6499 1369.7318 0.0000 0.0000 1743.8194 -7469.7228 299.0390 -9213.5422 -7389.9432 299.4478 -354.8657 -293.0843 29689.5819 -160.8606 -97.2880
ENERGY: 600000 1.9981 7.7355 5.7565 0.0000 -10672.6398 1427.9598 0.0000 0.0000 1709.8079 -7519.3821 293.2065 -9229.1900 -7399.7374 299.6138 -82.2023 -84.8981 29895.8179 -126.1327 -68.8090
ENERGY: 900000 0.5984 9.5648 7.3269 0.0000 -10656.4905 1430.0161 0.0000 0.0000 1761.1127 -7447.8716 302.0045 -9208.9843 -7393.5680 300.9587 -268.0164 -192.8270 30224.1901 -60.3035 3.0487
ENERGY: 1200000 1.5865 6.3641 5.4575 0.0000 -10432.0021 1293.2531 0.0000 0.0000 1815.8567 -7309.4842 311.3923 -9125.3408 -7388.5944 301.5341 -892.8189 -841.4877 30355.3430 -124.8100 -55.7559
ENERGY: 1500000 4.7303 10.3978 4.5856 0.0000 -10554.7368 1378.9587 0.0000 0.0000 1718.7922 -7437.2723 294.7472 -9156.0644 -7396.9865 300.8625 -917.4837 -776.3148 30680.4408 -206.2731 -134.5402
TCL: Running FEP window   9: Lambda1 0.39999999999999997 Lambda2 0.44999999999999996 [dLambda 0.04999999999999999]
TCL: Setting parameter firsttimestep to 0
TCL: Setting parameter alchLambda to 0.39999999999999997
Info: NONBONDED TABLE R-SQUARED SPACING: 0.0625
Info: NONBONDED TABLE SIZE: 705 POINTS
TCL: Setting parameter alchLambda2 to 0.44999999999999996
Info: NONBONDED TABLE R-SQUARED SPACING: 0.0625
Info: NONBONDED TABLE SIZE: 705 POINTS
TCL: Running for 1500000 steps
ETITLE: TS BOND ANGLE DIHED IMPRP ELECT VDW BOUNDARY MISC KINETIC TOTAL TEMP POTENTIAL TOTALAVG TEMPAVG PRESSURE GPRESSURE VOLUME PRESSAVG GPRESSAVG
ENERGY: 0 4.7303 10.3978 4.5856 0.0000 -10554.7357 1378.9101 0.0000 0.0000 1717.9553 -7438.1567 294.6037 -9156.1120 -7438.1567 294.6037 -856.3035 -771.4078 30680.4408 -856.3035 -771.4078
ENERGY: 300000 3.0814 9.2280 5.6288 0.0000 -10558.7251 1416.2053 0.0000 0.0000 1751.2706 -7373.3109 300.3167 -9124.5815 -7371.7606 296.7715 -137.4494 -81.8917 30196.3957 -290.5256 -234.8533
ENERGY: 600000 1.1489 8.0777 6.1560 0.0000 -10634.8518 1476.1789 0.0000 0.0000 1769.6332 -7373.6571 303.4656 -9143.2903 -7371.2033 300.6449 46.7030 154.7555 30605.7114 -241.0939 -172.2950
ENERGY: 900000 2.6466 13.6883 3.9539 0.0000 -10853.7884 1563.5552 0.0000 0.0000 1755.4288 -7514.5156 301.0298 -9269.9444 -7389.5029 300.3196 711.2150 774.5022 29882.6891 -179.7383 -111.4975
ENERGY: 1200000 3.7206 13.9262 4.4491 0.0000 -10667.7990 1492.7166 0.0000 0.0000 1799.5438 -7353.4427 308.5949 -9152.9865 -7389.1261 300.4802 706.5478 729.1222 30036.1316 -63.0744 0.0840
ENERGY: 1500000 3.2856 7.5764 7.5096 0.0000 -10718.0810 1478.5512 0.0000 0.0000 1793.0789 -7428.0794 307.4862 -9221.1582 -7395.8093 301.1250 366.6754 386.9109 29802.8541 -41.3641 14.9906
TCL: Running FEP window  10: Lambda1 0.44999999999999996 Lambda2 0.49999999999999994 [dLambda 0.04999999999999999]
TCL: Setting parameter firsttimestep to 0
TCL: Setting parameter alchLambda to 0.44999999999999996
Info: NONBONDED TABLE R-SQUARED SPACING: 0.0625
Info: NONBONDED TABLE SIZE: 705 POINTS
TCL: Setting parameter alchLambda2 to 0.49999999999999994
Info: NONBONDED TABLE R-SQUARED SPACING: 0.0625
Info: NONBONDED TABLE SIZE: 705 POINTS
TCL: Running for 1500000 steps
ETITLE: TS BOND ANGLE DIHED IMPRP ELECT VDW BOUNDARY MISC KINETIC TOTAL TEMP POTENTIAL TOTALAVG TEMPAVG PRESSURE GPRESSURE VOLUME PRESSAVG GPRESSAVG
ENERGY: 0 3.2856 7.5764 7.5096 0.0000 -10718.0811 1479.1829 0.0000 0.0000 1792.2226 -7428.3041 307.3394 -9220.5267 -7428.3041 307.3394 320.0485 402.6571 29802.8541 320.0485 402.6571
ENERGY: 300000 4.3728 11.4167 5.9328 0.0000 -10614.8213 1425.5574 0.0000 0.0000 1731.7816 -7435.7598 296.9747 -9167.5414 -7425.2193 298.7978 -113.2542 -10.8939 29796.7234 270.4546 350.8029
ENERGY: 600000 4.5278 10.6204 8.4737 0.0000 -10739.0937 1534.2518 0.0000 0.0000 1842.4794 -7338.7407 315.9577 -9181.2201 -7402.2246 301.5695 760.0004 857.9603 29806.1550 441.9181 517.2098
ENERGY: 900000 0.9921 10.8571 6.0703 0.0000 -10563.4645 1376.0379 0.0000 0.0000 1785.4807 -7384.0264 306.1832 -9169.5071 -7401.0026 301.6693 -176.1093 -120.6578 29749.7055 315.5622 380.2722
ENERGY: 1200000 2.3399 14.0213 5.0800 0.0000 -10693.8653 1510.2419 0.0000 0.0000 1739.7588 -7422.4233 298.3426 -9162.1821 -7409.0292 301.3115 708.4620 771.8011 29833.4568 243.9030 306.0293
ENERGY: 1500000 3.8072 12.1766 5.1636 0.0000 -10467.6584 1328.2085 0.0000 0.0000 1765.2711 -7353.0314 302.7176 -9118.3025 -7410.6708 301.4371 -535.7896 -582.8665 30171.6296 199.0872 256.7944
TCL: Running FEP window  11: Lambda1 0.49999999999999994 Lambda2 0.5499999999999999 [dLambda 0.04999999999999999]
TCL: Setting parameter firsttimestep to 0
TCL: Setting parameter alchLambda to 0.49999999999999994
Info: NONBONDED TABLE R-SQUARED SPACING: 0.0625
Info: NONBONDED TABLE SIZE: 705 POINTS
TCL: Setting parameter alchLambda2 to 0.5499999999999999
Info: NONBONDED TABLE R-SQUARED SPACING: 0.0625
Info: NONBONDED TABLE SIZE: 705 POINTS
TCL: Running for 1500000 steps
ETITLE: TS BOND ANGLE DIHED IMPRP ELECT VDW BOUNDARY MISC KINETIC TOTAL TEMP POTENTIAL TOTALAVG TEMPAVG PRESSURE GPRESSURE VOLUME PRESSAVG GPRESSAVG
ENERGY: 0 3.8072 12.1766 5.1636 0.0000 -10467.6606 1327.8098 0.0000 0.0000 1764.3989 -7354.3044 302.5680 -9118.7034 -7354.3044 302.5680 -662.9848 -579.3691 30171.6296 -662.9848 -579.3691
ENERGY: 300000 2.7599 11.2698 5.3565 0.0000 -10586.1860 1394.5270 0.0000 0.0000 1747.8353 -7424.4375 299.7276 -9172.2728 -7437.1023 299.5374 -157.5909 -153.6963 29941.1786 -687.3751 -645.5671
ENERGY: 600000 2.0825 12.7802 5.9569 0.0000 -10670.9520 1431.2556 0.0000 0.0000 1726.0873 -7492.7895 295.9982 -9218.8768 -7422.6785 299.6259 -263.4507 -304.6448 30397.7828 -498.7740 -471.8082
ENERGY: 900000 4.1766 10.5476 4.7130 0.0000 -10563.3703 1387.4401 0.0000 0.0000 1753.1421 -7403.3508 300.6377 -9156.4929 -7411.3609 300.7298 -330.6678 -268.7568 30440.7865 -415.2300 -367.2360
ENERGY: 1200000 4.1255 13.0932 4.9865 0.0000 -10684.8269 1438.0273 0.0000 0.0000 1792.0239 -7432.5706 307.3053 -9224.5945 -7403.6754 301.3808 -273.7540 -229.7916 30020.5494 -431.1237 -382.5493
ENERGY: 1500000 3.1359 8.4645 4.7439 0.0000 -10669.5484 1514.7479 0.0000 0.0000 1758.1907 -7380.2655 301.5034 -9138.4562 -7410.7110 300.5937 845.9772 889.7394 29996.6633 -290.7499 -238.1026
TCL: Running FEP window  12: Lambda1 0.5499999999999999 Lambda2 0.6    [dLambda 0.050000000000000044]
TCL: Setting parameter firsttimestep to 0
TCL: Setting parameter alchLambda to 0.5499999999999999
Info: NONBONDED TABLE R-SQUARED SPACING: 0.0625
Info: NONBONDED TABLE SIZE: 705 POINTS
TCL: Setting parameter alchLambda2 to 0.6
Info: NONBONDED TABLE R-SQUARED SPACING: 0.0625
Info: NONBONDED TABLE SIZE: 705 POINTS
TCL: Running for 1500000 steps
ETITLE: TS BOND ANGLE DIHED IMPRP ELECT VDW BOUNDARY MISC KINETIC TOTAL TEMP POTENTIAL TOTALAVG TEMPAVG PRESSURE GPRESSURE VOLUME PRESSAVG GPRESSAVG
ENERGY: 0 3.1359 8.4645 4.7439 0.0000 -10669.9521 1515.4512 0.0000 0.0000 1757.3502 -7380.8064 301.3593 -9138.1566 -7380.8064 301.3593 828.1752 904.3735 29996.6633 828.1752 904.3735
ENERGY: 300000 2.1980 10.8917 5.3969 0.0000 -10601.5714 1378.0793 0.0000 0.0000 1725.7518 -7479.2537 295.9406 -9205.0055 -7436.1003 299.9738 -426.0324 -384.9905 29718.6787 -5.4056 62.1880
ENERGY: 600000 2.1780 9.9546 4.3732 0.0000 -10619.0644 1411.8382 0.0000 0.0000 1782.8014 -7407.9191 305.7238 -9190.7205 -7423.6476 300.1684 -236.9626 -102.1108 30082.9303 70.3227 146.8721
ENERGY: 900000 3.0887 14.6092 5.3131 0.0000 -10343.5186 1263.5085 0.0000 0.0000 1806.8410 -7250.1581 309.8462 -9056.9991 -7399.6571 301.1473 -1028.6950 -986.1865 30213.0134 -72.5517 -1.5548
ENERGY: 1200000 1.5011 10.4083 6.7662 0.0000 -10531.5024 1360.9731 0.0000 0.0000 1726.3677 -7425.4860 296.0463 -9151.8537 -7402.1254 300.5974 -655.7422 -618.6715 30468.2509 -122.0226 -56.3293
ENERGY: 1500000 1.7141 9.7091 4.3056 0.0000 -10609.0913 1434.1267 0.0000 0.0000 1774.5596 -7384.6762 304.3104 -9159.2358 -7401.4219 300.2634 47.6680 121.7615 30222.3958 -4.0784 59.6540
TCL: Running FEP window  13: Lambda1 0.6    Lambda2 0.65   [dLambda 0.050000000000000044]
TCL: Setting parameter firsttimestep to 0
TCL: Setting parameter alchLambda to 0.6
Info: NONBONDED TABLE R-SQUARED SPACING: 0.0625
Info: NONBONDED TABLE SIZE: 705 POINTS
TCL: Setting parameter alchLambda2 to 0.65
Info: NONBONDED TABLE R-SQUARED SPACING: 0.0625
Info: NONBONDED TABLE SIZE: 705 POINTS
TCL: Running for 1500000 steps
ETITLE: TS BOND ANGLE DIHED IMPRP ELECT VDW BOUNDARY MISC KINETIC TOTAL TEMP POTENTIAL TOTALAVG TEMPAVG PRESSURE GPRESSURE VOLUME PRESSAVG GPRESSAVG
ENERGY: 0 1.7141 9.7091 4.3056 0.0000 -10609.0291 1433.9254 0.0000 0.0000 1773.7027 -7385.6721 304.1635 -9159.3748 -7385.6721 304.1635 51.4237 128.7740 30222.3958 51.4237 128.7740
ENERGY: 300000 0.9133 6.6300 5.4475 0.0000 -10666.0943 1471.5072 0.0000 0.0000 1762.6228 -7418.9735 302.2635 -9181.5963 -7435.5262 302.7240 166.1788 274.9003 30489.0597 -23.1103 39.6260
ENERGY: 600000 2.3407 9.6985 4.7685 0.0000 -10586.2712 1381.5038 0.0000 0.0000 1769.7776 -7418.1820 303.4904 -9187.9596 -7425.3903 302.2392 -518.6769 -443.2112 30186.4915 -100.5383 -34.8219
ENERGY: 900000 3.0151 7.3389 6.6143 0.0000 -10614.9872 1384.1369 0.0000 0.0000 1741.3509 -7472.5312 298.6156 -9213.8821 -7418.2911 302.6736 -577.8580 -511.8679 30378.4386 -94.3802 -20.1200
ENERGY: 1200000 4.5475 8.8228 6.5967 0.0000 -10523.8398 1409.2440 0.0000 0.0000 1785.9773 -7308.6515 306.2684 -9094.6288 -7410.4471 301.8411 -222.4775 -153.4070 30680.1355 -154.2868 -78.7657
ENERGY: 1500000 2.3292 4.7030 4.8819 0.0000 -10565.0058 1404.2101 0.0000 0.0000 1798.4708 -7350.4108 308.4109 -9148.8817 -7406.9514 302.6355 -236.8152 -169.8320 30479.3567 -180.5139 -106.4815
TCL: Running FEP window  14: Lambda1 0.65   Lambda2 0.7000000000000001 [dLambda 0.050000000000000044]
TCL: Setting parameter firsttimestep to 0
TCL: Setting parameter alchLambda to 0.65
Info: NONBONDED TABLE R-SQUARED SPACING: 0.0625
Info: NONBONDED TABLE SIZE: 705 POINTS
TCL: Setting parameter alchLambda2 to 0.7000000000000001
Info: NONBONDED TABLE R-SQUARED SPACING: 0.0625
Info: NONBONDED TABLE SIZE: 705 POINTS
TCL: Running for 1500000 steps
ETITLE: TS BOND ANGLE DIHED IMPRP ELECT VDW BOUNDARY MISC KINETIC TOTAL TEMP POTENTIAL TOTALAVG TEMPAVG PRESSURE GPRESSURE VOLUME PRESSAVG GPRESSAVG
ENERGY: 0 2.3292 4.7030 4.8819 0.0000 -10565.1751 1404.3541 0.0000 0.0000 1797.5695 -7351.3375 308.2563 -9148.9070 -7351.3375 308.2563 -233.9359 -154.3050 30479.3567 -233.9359 -154.3050
ENERGY: 300000 2.7712 7.8535 6.5299 0.0000 -10479.0133 1342.0205 0.0000 0.0000 1730.1472 -7389.6910 296.6944 -9119.8382 -7339.4956 304.8757 -728.4020 -656.4097 30256.3372 -148.5365 -57.0566
ENERGY: 600000 3.4275 14.2967 4.7997 0.0000 -10551.3126 1366.2355 0.0000 0.0000 1744.7122 -7417.8411 299.1921 -9162.5533 -7363.8922 303.5040 -667.6918 -526.3634 30073.1536 -360.6601 -274.0006
ENERGY: 900000 1.2481 7.1777 2.4453 0.0000 -10469.2050 1385.4996 0.0000 0.0000 1804.2988 -7268.5355 309.4103 -9072.8343 -7362.9383 303.7082 15.8524 126.0781 30288.3028 -206.9060 -120.7963
ENERGY: 1200000 2.0727 9.1106 4.1592 0.0000 -10440.9366 1346.9421 0.0000 0.0000 1801.6506 -7277.0014 308.9562 -9078.6521 -7368.7925 303.0652 -412.0729 -342.9251 30272.4639 -197.4067 -116.0788
ENERGY: 1500000 1.8101 8.7915 5.4319 0.0000 -10434.8066 1256.1000 0.0000 0.0000 1726.3314 -7436.3418 296.0400 -9162.6733 -7374.3636 301.7921 -1392.5770 -1305.1463 30262.5509 -218.3242 -135.8725
TCL: Running FEP window  15: Lambda1 0.7000000000000001 Lambda2 0.7500000000000001 [dLambda 0.050000000000000044]
TCL: Setting parameter firsttimestep to 0
TCL: Setting parameter alchLambda to 0.7000000000000001
Info: NONBONDED TABLE R-SQUARED SPACING: 0.0625
Info: NONBONDED TABLE SIZE: 705 POINTS
TCL: Setting parameter alchLambda2 to 0.7500000000000001
Info: NONBONDED TABLE R-SQUARED SPACING: 0.0625
Info: NONBONDED TABLE SIZE: 705 POINTS
TCL: Running for 1500000 steps
ETITLE: TS BOND ANGLE DIHED IMPRP ELECT VDW BOUNDARY MISC KINETIC TOTAL TEMP POTENTIAL TOTALAVG TEMPAVG PRESSURE GPRESSURE VOLUME PRESSAVG GPRESSAVG
ENERGY: 0 1.8101 8.7915 5.4319 0.0000 -10435.4817 1256.0362 0.0000 0.0000 1725.4707 -7437.9415 295.8924 -9163.4122 -7437.9415 295.8924 -1382.4854 -1295.6562 30262.5509 -1382.4854 -1295.6562
ENERGY: 300000 2.5359 6.5329 7.0996 0.0000 -10622.2668 1413.3635 0.0000 0.0000 1778.3979 -7414.3370 304.9687 -9192.7349 -7395.0910 301.4149 -48.8333 24.1820 29871.1778 -691.2928 -620.8138
ENERGY: 600000 2.0028 14.3917 2.0599 0.0000 -10644.7784 1467.8025 0.0000 0.0000 1739.6506 -7418.8710 298.3241 -9158.5216 -7413.1321 300.2885 338.5307 358.2476 30115.9243 -337.1187 -271.2136
ENERGY: 900000 1.6668 11.7884 6.3927 0.0000 -10637.8388 1438.7099 0.0000 0.0000 1714.3448 -7464.9362 293.9845 -9179.2810 -7399.5975 299.8360 501.7713 503.6255 29522.9881 -263.0326 -208.5297
ENERGY: 1200000 0.9806 10.3007 6.0717 0.0000 -10631.9066 1489.2414 0.0000 0.0000 1716.5384 -7408.7738 294.3607 -9125.3122 -7403.0555 299.0813 346.3025 403.6303 30403.1454 -190.1467 -132.6615
ENERGY: 1500000 1.9881 8.8383 4.6045 0.0000 -10620.2080 1436.7532 0.0000 0.0000 1720.9193 -7447.1046 295.1119 -9168.0239 -7402.2746 299.1871 -25.3116 -25.5082 30334.5197 -175.8796 -120.4895
TCL: Running FEP window  16: Lambda1 0.7500000000000001 Lambda2 0.8000000000000002 [dLambda 0.050000000000000044]
TCL: Setting parameter firsttimestep to 0
TCL: Setting parameter alchLambda to 0.7500000000000001
Info: NONBONDED TABLE R-SQUARED SPACING: 0.0625
Info: NONBONDED TABLE SIZE: 705 POINTS
TCL: Setting parameter alchLambda2 to 0.8000000000000002
Info: NONBONDED TABLE R-SQUARED SPACING: 0.0625
Info: NONBONDED TABLE SIZE: 705 POINTS
TCL: Running for 1500000 steps
ETITLE: TS BOND ANGLE DIHED IMPRP ELECT VDW BOUNDARY MISC KINETIC TOTAL TEMP POTENTIAL TOTALAVG TEMPAVG PRESSURE GPRESSURE VOLUME PRESSAVG GPRESSAVG
ENERGY: 0 1.9881 8.8383 4.6045 0.0000 -10620.6228 1437.3334 0.0000 0.0000 1720.0498 -7447.8087 294.9628 -9167.8585 -7447.8087 294.9628 -79.9142 -5.0892 30334.5197 -79.9142 -5.0892
ENERGY: 300000 5.0549 15.7861 6.2350 0.0000 -10782.1322 1553.7614 0.0000 0.0000 1732.1819 -7469.1128 297.0433 -9201.2947 -7442.0135 295.4404 767.1409 791.1286 30003.6526 -165.3421 -111.9323
ENERGY: 600000 1.5395 7.7416 3.9676 0.0000 -10665.6187 1454.1476 0.0000 0.0000 1793.9661 -7404.2563 307.6384 -9198.2224 -7447.5843 299.0131 85.6756 119.5077 30196.6929 -156.5956 -96.0134
ENERGY: 900000 1.1901 13.4533 3.8565 0.0000 -10643.0794 1435.3751 0.0000 0.0000 1725.1497 -7464.0548 295.8374 -9189.2045 -7439.7228 298.8465 -11.1397 68.1404 30171.8345 -175.9419 -113.9073
ENERGY: 1200000 1.1430 9.2795 4.5406 0.0000 -10700.8028 1466.6701 0.0000 0.0000 1729.9621 -7489.2075 296.6626 -9219.1696 -7442.9369 298.9573 211.5187 317.3979 29960.5243 -1.1234 67.2285
ENERGY: 1500000 5.6324 9.8779 5.1139 0.0000 -10571.3996 1445.7871 0.0000 0.0000 1755.8217 -7349.1666 301.0972 -9104.9884 -7430.7754 299.4177 -64.5917 -75.4390 30905.6716 2.4321 61.9850
TCL: Running FEP window  17: Lambda1 0.8000000000000002 Lambda2 0.8500000000000002 [dLambda 0.050000000000000044]
TCL: Setting parameter firsttimestep to 0
TCL: Setting parameter alchLambda to 0.8000000000000002
Info: NONBONDED TABLE R-SQUARED SPACING: 0.0625
Info: NONBONDED TABLE SIZE: 705 POINTS
TCL: Setting parameter alchLambda2 to 0.8500000000000002
Info: NONBONDED TABLE R-SQUARED SPACING: 0.0625
Info: NONBONDED TABLE SIZE: 705 POINTS
TCL: Running for 1500000 steps
ETITLE: TS BOND ANGLE DIHED IMPRP ELECT VDW BOUNDARY MISC KINETIC TOTAL TEMP POTENTIAL TOTALAVG TEMPAVG PRESSURE GPRESSURE VOLUME PRESSAVG GPRESSAVG
ENERGY: 0 5.6324 9.8779 5.1139 0.0000 -10572.6060 1448.2485 0.0000 0.0000 1754.9451 -7348.7882 300.9469 -9103.7333 -7348.7882 300.9469 -105.3292 -37.7690 30905.6716 -105.3292 -37.7690
ENERGY: 300000 3.0378 14.9871 2.6551 0.0000 -10562.1256 1418.4741 0.0000 0.0000 1802.7164 -7320.2552 309.1389 -9122.9715 -7369.8297 303.4568 98.0521 149.3710 30499.6075 136.5000 217.2751
ENERGY: 600000 4.0089 16.5278 3.4231 0.0000 -10625.6526 1456.4787 0.0000 0.0000 1764.0191 -7381.1951 302.5029 -9145.2141 -7386.9525 302.5815 272.1759 379.3687 30057.6371 108.8395 185.4008
ENERGY: 900000 1.8232 10.2050 4.4970 0.0000 -10597.7803 1372.0539 0.0000 0.0000 1749.4613 -7459.7399 300.0065 -9209.2012 -7390.5963 303.5962 -516.2831 -527.9140 30337.2852 88.9524 155.1123
ENERGY: 1200000 2.9036 9.0770 6.0103 0.0000 -10717.6561 1504.8309 0.0000 0.0000 1793.4479 -7401.3863 307.5495 -9194.8343 -7383.6251 304.2180 632.9289 625.8863 30126.5960 15.6537 73.5275
ENERGY: 1500000 3.5089 12.0098 5.4875 0.0000 -10686.2757 1498.4531 0.0000 0.0000 1721.6988 -7445.1177 295.2456 -9166.8165 -7382.3178 303.9316 409.9143 479.7650 30277.6268 -8.7893 49.6801
TCL: Running FEP window  18: Lambda1 0.8500000000000002 Lambda2 0.9000000000000002 [dLambda 0.050000000000000044]
TCL: Setting parameter firsttimestep to 0
TCL: Setting parameter alchLambda to 0.8500000000000002
Info: NONBONDED TABLE R-SQUARED SPACING: 0.0625
Info: NONBONDED TABLE SIZE: 705 POINTS
TCL: Setting parameter alchLambda2 to 0.9000000000000002
Info: NONBONDED TABLE R-SQUARED SPACING: 0.0625
Info: NONBONDED TABLE SIZE: 705 POINTS
TCL: Running for 1500000 steps
ETITLE: TS BOND ANGLE DIHED IMPRP ELECT VDW BOUNDARY MISC KINETIC TOTAL TEMP POTENTIAL TOTALAVG TEMPAVG PRESSURE GPRESSURE VOLUME PRESSAVG GPRESSAVG
ENERGY: 0 3.5089 12.0098 5.4875 0.0000 -10687.0169 1498.2001 0.0000 0.0000 1720.8141 -7446.9966 295.0939 -9167.8107 -7446.9966 295.0939 412.5040 484.3677 30277.6268 412.5040 484.3677
ENERGY: 300000 1.8811 11.4431 5.3892 0.0000 -10511.2361 1387.3384 0.0000 0.0000 1754.3799 -7350.8045 300.8499 -9105.1843 -7358.1269 302.4645 -108.7168 -51.7857 30044.6374 -101.8825 -43.3005
ENERGY: 600000 1.8132 8.9984 4.0423 0.0000 -10586.8975 1409.7107 0.0000 0.0000 1721.8977 -7440.4353 295.2797 -9162.3330 -7370.1090 300.7159 -154.6730 -99.6492 30221.0112 23.8340 60.7787
ENERGY: 900000 3.6115 5.4975 6.6971 0.0000 -10542.4111 1350.7813 0.0000 0.0000 1740.9108 -7434.9129 298.5402 -9175.8238 -7382.4841 300.9285 -622.6189 -522.9130 29983.9662 -32.3241 18.2783
ENERGY: 1200000 3.5935 11.9967 6.5487 0.0000 -10686.8236 1471.4973 0.0000 0.0000 1777.6857 -7415.5017 304.8465 -9193.1873 -7385.5490 301.4318 425.2176 510.7046 29793.4107 -47.3646 11.7880
ENERGY: 1500000 2.4604 6.7468 4.6920 0.0000 -10669.3054 1487.1275 0.0000 0.0000 1758.4971 -7409.7816 301.5560 -9168.2787 -7383.4055 301.2764 684.5487 678.3358 29956.9255 52.1199 105.9841
TCL: Running FEP window  19: Lambda1 0.9000000000000002 Lambda2 0.9500000000000003 [dLambda 0.050000000000000044]
TCL: Setting parameter firsttimestep to 0
TCL: Setting parameter alchLambda to 0.9000000000000002
Info: NONBONDED TABLE R-SQUARED SPACING: 0.0625
Info: NONBONDED TABLE SIZE: 705 POINTS
TCL: Setting parameter alchLambda2 to 0.9500000000000003
Info: NONBONDED TABLE R-SQUARED SPACING: 0.0625
Info: NONBONDED TABLE SIZE: 705 POINTS
TCL: Running for 1500000 steps
ETITLE: TS BOND ANGLE DIHED IMPRP ELECT VDW BOUNDARY MISC KINETIC TOTAL TEMP POTENTIAL TOTALAVG TEMPAVG PRESSURE GPRESSURE VOLUME PRESSAVG GPRESSAVG
ENERGY: 0 2.4604 6.7468 4.6920 0.0000 -10671.2865 1488.2757 0.0000 0.0000 1757.6392 -7411.4725 301.4089 -9169.1117 -7411.4725 301.4089 624.8138 707.9110 29956.9255 624.8138 707.9110
ENERGY: 300000 2.3317 12.7387 5.6557 0.0000 -10818.7727 1525.4423 0.0000 0.0000 1760.2667 -7512.3374 301.8594 -9272.6042 -7436.8860 304.1488 717.8229 736.4436 29876.4169 239.3286 289.4364
ENERGY: 600000 1.6737 6.7512 6.7480 0.0000 -10556.9262 1440.1650 0.0000 0.0000 1774.3700 -7327.2183 304.2779 -9101.5883 -7430.1701 300.6667 221.7524 310.6318 30143.1211 225.9062 289.5479
ENERGY: 900000 2.7205 10.5158 7.0860 0.0000 -10486.5953 1295.2570 0.0000 0.0000 1762.2921 -7408.7238 302.2068 -9171.0159 -7415.1282 302.0206 -1034.8688 -1007.4669 30197.7742 108.0424 157.2565
ENERGY: 1200000 1.3454 11.5184 5.3348 0.0000 -10701.8540 1469.8346 0.0000 0.0000 1731.4132 -7482.4076 296.9115 -9213.8208 -7413.3413 300.4187 46.4138 85.0859 30272.7325 71.9966 121.7408
ENERGY: 1500000 1.8645 9.6621 4.7391 0.0000 -10729.6909 1487.1538 0.0000 0.0000 1768.0876 -7458.1838 303.2006 -9226.2714 -7414.6168 301.1577 342.5272 452.5485 30083.1977 58.3066 115.1886
TCL: Running FEP window  20: Lambda1 0.9500000000000003 Lambda2 1.0    [dLambda 0.04999999999999971]
TCL: Setting parameter firsttimestep to 0
TCL: Setting parameter alchLambda to 0.9500000000000003
Info: NONBONDED TABLE R-SQUARED SPACING: 0.0625
Info: NONBONDED TABLE SIZE: 705 POINTS
TCL: Setting parameter alchLambda2 to 1.0
Info: NONBONDED TABLE R-SQUARED SPACING: 0.0625
Info: NONBONDED TABLE SIZE: 705 POINTS
TCL: Running for 1500000 steps
ETITLE: TS BOND ANGLE DIHED IMPRP ELECT VDW BOUNDARY MISC KINETIC TOTAL TEMP POTENTIAL TOTALAVG TEMPAVG PRESSURE GPRESSURE VOLUME PRESSAVG GPRESSAVG
ENERGY: 0 1.8645 9.6621 4.7391 0.0000 -10730.6557 1487.8993 0.0000 0.0000 1767.2529 -7459.2378 303.0575 -9226.4907 -7459.2378 303.0575 384.5432 480.1254 30083.1977 384.5432 480.1254
ENERGY: 300000 2.8271 13.8910 4.3867 0.0000 -10614.5377 1426.5671 0.0000 0.0000 1733.7397 -7433.1263 297.3104 -9166.8659 -7433.2238 297.1212 -73.7065 -52.0587 30221.2175 110.9782 169.0692
ENERGY: 600000 2.2550 9.1335 3.1840 0.0000 -10488.7975 1345.5964 0.0000 0.0000 1726.5533 -7402.0754 296.0781 -9128.6286 -7441.0856 295.5071 -472.9649 -455.0155 30271.6889 -19.1130 32.6580
ENERGY: 900000 1.7644 6.6771 2.7040 0.0000 -10613.5297 1466.3741 0.0000 0.0000 1781.7606 -7354.2493 305.5453 -9136.0099 -7427.2271 297.5658 265.9542 310.1110 30503.8719 54.3863 105.7075
ENERGY: 1200000 3.0014 9.1196 4.2047 0.0000 -10417.9674 1257.3743 0.0000 0.0000 1766.7372 -7377.5302 302.9690 -9144.2674 -7423.6355 297.6931 -1160.2310 -1096.6505 30588.2346 -101.8282 -47.0915
ENERGY: 1500000 2.5081 14.2414 5.7994 0.0000 -10531.6228 1369.5876 0.0000 0.0000 1728.0528 -7411.4334 296.3352 -9139.4862 -7424.1932 297.9923 -321.9415 -275.3417 30082.9387 -96.9953 -41.6811
TCL: Exiting due to exit command.
