Info: SIMULATION PARAMETERS:
Info: TIMESTEP               2
Info: NUMBER OF STEPS        0
Info: STEPS PER CYCLE        10
Info: PERIODIC CELL BASIS 1  33.1884 0 0
Info: PERIODIC CELL BASIS 2  0 30.3735 0
Info: PERIODIC CELL BASIS 3  0 0 30.0331
Info: PERIODIC CELL CENTER   0 0 0
Info: WRAPPING WATERS AROUND PERIODIC BOUNDARIES ON OUTPUT.
Info: WRAPPING ALL CLUSTERS AROUND PERIODIC BOUNDARIES ON OUTPUT.
Info: FIRST LDB TIMESTEP     50
Info: LAST LDB TIMESTEP     -1
Info: HOM BACKGROUND SCALING 1
Info: PME BACKGROUND SCALING 1
Info: MIN ATOMS PER PATCH    40
Info: EMPTY PATCH LOAD       40 ATOMS
Info: VELOCITY FILE          mobley_2402487_equil.vel
Info: CENTER OF MASS MOVING INITIALLY? NO
Info: DIELECTRIC             1
Info: EXCLUDE                SCALED ONE-FOUR
Info: 1-4 ELECTROSTATICS SCALED BY 0.833333
Info: MODIFIED 1-4 VDW PARAMETERS WILL BE USED
Info: DCD FILENAME           mobley_2402487_prod.dcd
Info: DCD FREQUENCY          100000
Info: DCD FIRST STEP         100000
Info: DCD FILE WILL CONTAIN UNIT CELL DATA
Info: XST FILENAME           mobley_2402487_prod.xst
Info: XST FREQUENCY          100000
Info: NO VELOCITY DCD OUTPUT
Info: NO FORCE DCD OUTPUT
Info: OUTPUT FILENAME        mobley_2402487_prod
Info: BINARY OUTPUT FILES WILL BE USED
Info: RESTART FILENAME       mobley_2402487_prod.restart
Info: RESTART FREQUENCY      100000
Info: BINARY RESTART FILES WILL BE USED
Info: CUTOFF                 9
Info: PAIRLIST DISTANCE      11
Info: PAIRLIST SHRINK RATE   0.01
Info: PAIRLIST GROW RATE     0.01
Info: PAIRLIST TRIGGER       0.3
Info: PAIRLISTS PER CYCLE    2
Info: PAIRLISTS ENABLED
Info: MARGIN                 2
Info: HYDROGEN GROUP CUTOFF  2.5
Info: PATCH DIMENSION        15.5
Info: ENERGY OUTPUT STEPS    100000
Info: ENERGY EVALUATION STEPS    100000
Info: OUTPUT ENERGY PRECISION 4
Info: CROSSTERM ENERGY INCLUDED IN DIHEDRAL
Info: TIMING OUTPUT STEPS    1000000
Info: PRESSURE OUTPUT STEPS  100000
Info: ALCHEMICAL FEP ON
Info: FEP CURRENT LAMBDA VALUE     0
Info: FEP COMPARISON LAMBDA VALUE  0.05
Info: FEP INTRA-ALCHEMICAL NON-BONDED INTERACTIONS WILL BE RETAINED
Info: FEP INTRA-ALCHEMICAL BONDED INTERACTIONS WILL BE RETAINED
Info: FEP VDW SHIFTING COEFFICIENT 5
Info: FEP ELEC. ACTIVE FOR ANNIHILATED PARTICLES BETWEEN LAMBDA = 0 AND LAMBDA = 0.5
Info: FEP ELEC. ACTIVE FOR EXNIHILATED PARTICLES BETWEEN LAMBDA = 0.5 AND LAMBDA = 1
Info: FEP VDW ACTIVE FOR ANNIHILATED PARTICLES BETWEEN LAMBDA = 0 AND LAMBDA = 1
Info: FEP VDW ACTIVE FOR EXNIHILATED PARTICLES BETWEEN LAMBDA = 0 AND LAMBDA = 1
Info: FEP BOND ACTIVE FOR ANNIHILATED PARTICLES BETWEEN LAMBDA = 1 AND LAMBDA = 1
Info: FEP BOND ACTIVE FOR EXNIHILATED PARTICLES BETWEEN LAMBDA = 0 AND LAMBDA = 0
Info: LANGEVIN DYNAMICS ACTIVE
Info: LANGEVIN TEMPERATURE   300
Info: LANGEVIN USING BBK INTEGRATOR
Info: LANGEVIN DAMPING COEFFICIENT IS 1 INVERSE PS
Info: LANGEVIN DYNAMICS APPLIED TO HYDROGENS
Info: LANGEVIN PISTON PRESSURE CONTROL ACTIVE
Info:        TARGET PRESSURE IS 1.01325 BAR
Info:     OSCILLATION PERIOD IS 50 FS
Info:             DECAY TIME IS 25 FS
Info:     PISTON TEMPERATURE IS 300 K
Info:       PRESSURE CONTROL IS GROUP-BASED
Info:    INITIAL STRAIN RATE IS 0.000278877 0.000278877 0.000278877
Info:       CELL FLUCTUATION IS ISOTROPIC
Info: PARTICLE MESH EWALD (PME) ACTIVE
Info: PME TOLERANCE               1e-06
Info: PME EWALD COEFFICIENT       0.348832
Info: PME INTERPOLATION ORDER     4
Info: PME GRID DIMENSIONS         36 32 32
Info: PME MAXIMUM GRID SPACING    1
Info: PME CALCULATION WILL BE PERFORMED ON GPU
Info: FULL ELECTROSTATIC EVALUATION FREQUENCY      2
Info: USING VERLET I (r-RESPA) MTS SCHEME.
Info: C1 SPLITTING OF LONG RANGE ELECTROSTATICS
Info: PLACING ATOMS IN PATCHES BY HYDROGEN GROUPS
Info: RIGID BONDS TO HYDROGEN : ALL
Info:         ERROR TOLERANCE : 1e-08
Info:          MAX ITERATIONS : 100
Info: RIGID WATER USING SETTLE ALGORITHM
Info: RANDOM NUMBER SEED     1743978550
Info: USE HYDROGEN BONDS?    NO
Info: Using AMBER format force field!
Info: AMBER PARM FILE        mobley_2402487.prmtop
Info: COORDINATE PDB         mobley_2402487.pdb
Info: Exclusions will be read from PARM file!
Info: SCNB (VDW SCALING)     2
Info: USING ARITHMETIC MEAN TO COMBINE L-J SIGMA PARAMETERS
Info: BINARY COORDINATES     mobley_2402487_equil.coor
Info: SUMMARY OF PARAMETERS:
Info: 9 BONDS
Info: 12 ANGLES
Info:   12 HARMONIC
Info:   0 COSINE-BASED
Info: 15 DIHEDRAL
Info: 0 IMPROPER
Info: 0 CROSSTERM
Info: 0 VDW
Info: 36 VDW_PAIRS
Info: 0 NBTHOLE_PAIRS
Info: To read alchdata from file: mobley_2402487.pdb
Info: To read alchflag data from column: 5
Info: STRUCTURE SUMMARY:
Info: 2927 ATOMS
Info: 2926 BONDS
Info: 38 ANGLES
Info: 64 DIHEDRALS
Info: 0 IMPROPERS
Info: 0 CROSSTERMS
Info: 3004 EXCLUSIONS
Info: 2916 RIGID BONDS
Info: ALCH: 0 ATOMS TO DISAPPEAR IN FINAL STATE
Info: ALCH: 23 ATOMS TO APPEAR IN FINAL STATE
Info: 5865 DEGREES OF FREEDOM
Info: 979 HYDROGEN GROUPS
Info: 4 ATOMS IN LARGEST HYDROGEN GROUP
Info: 979 MIGRATION GROUPS
Info: 4 ATOMS IN LARGEST MIGRATION GROUP
Info: TOTAL MASS = 17599.7 amu
Info: TOTAL CHARGE = 0.000100091 e
Info: MASS DENSITY = 0.965344 g/cm^3
Info: ATOM DENSITY = 0.0966811 atoms/A^3
Info: ADDED 0 IMPLICIT EXCLUSIONS
Info: NONBONDED TABLE R-SQUARED SPACING: 0.0625
Info: NONBONDED TABLE SIZE: 705 POINTS
Info: REMOVING COM VELOCITY 0.0515232 -0.00265985 -0.0653386
Info: Use 3D box decompostion in PME FFT.
Info: Updated CUDA force table with 4096 elements.
Info: Updated CUDA LJ table with 8 x 8 elements.
Info: Found 22 unique exclusion lists needing 64 bytes
TCL: Running for 1500000 steps
ETITLE: TS BOND ANGLE DIHED IMPRP ELECT VDW BOUNDARY MISC KINETIC TOTAL TEMP POTENTIAL TOTALAVG TEMPAVG PRESSURE GPRESSURE VOLUME PRESSAVG GPRESSAVG
ENERGY: 0 4.0634 8.4503 8.5376 0.0000 -10493.9182 1359.6662 0.0000 0.0000 1763.6739 -7349.5268 302.6500 -9113.2007 -7349.5268 302.6500 -458.5738 -389.6259 30274.7970 -458.5738 -389.6259
ENERGY: 300000 3.9445 9.8733 9.7868 0.0000 -10601.5417 1363.4595 0.0000 0.0000 1715.9394 -7498.5381 294.4586 -9214.4775 -7416.4496 302.5623 -512.9621 -390.4262 29904.4062 -55.8163 19.6233
ENERGY: 600000 5.4620 11.6370 9.9921 0.0000 -10595.7765 1401.8412 0.0000 0.0000 1766.0202 -7400.8239 303.0526 -9166.8441 -7437.5918 301.8129 -260.5072 -211.8522 30604.7679 15.0106 70.0948
ENERGY: 900000 2.6264 13.4544 10.0061 0.0000 -10689.4300 1411.4134 0.0000 0.0000 1707.5857 -7544.3440 293.0251 -9251.9298 -7440.7956 301.2715 -469.2553 -441.3775 30294.2168 4.1464 56.1028
ENERGY: 1200000 3.1702 14.6353 9.5805 0.0000 -10489.1376 1323.9860 0.0000 0.0000 1753.6277 -7384.1380 300.9260 -9137.7656 -7435.8531 302.7657 -465.4204 -376.9906 29642.1911 -103.5019 -45.7857
ENERGY: 1500000 3.0335 13.8153 8.3039 0.0000 -10710.3218 1452.2696 0.0000 0.0000 1743.3037 -7489.5958 299.1544 -9232.8995 -7446.5635 301.8095 121.6292 214.1962 29798.5482 -129.0037 -71.7513
TCL: Running FEP window   2: Lambda1 0.05   Lambda2 0.1    [dLambda 0.05  ]
TCL: Setting parameter firsttimestep to 0
TCL: Setting parameter alchLambda to 0.05
Info: NONBONDED TABLE R-SQUARED SPACING: 0.0625
Info: NONBONDED TABLE SIZE: 705 POINTS
TCL: Setting parameter alchLambda2 to 0.1
Info: NONBONDED TABLE R-SQUARED SPACING: 0.0625
Info: NONBONDED TABLE SIZE: 705 POINTS
TCL: Running for 1500000 steps
ETITLE: TS BOND ANGLE DIHED IMPRP ELECT VDW BOUNDARY MISC KINETIC TOTAL TEMP POTENTIAL TOTALAVG TEMPAVG PRESSURE GPRESSURE VOLUME PRESSAVG GPRESSAVG
ENERGY: 0 3.0335 13.8153 8.3039 0.0000 -10710.3222 1456.1946 0.0000 0.0000 1742.4564 -7486.5184 299.0090 -9228.9749 -7486.5184 299.0090 123.5074 224.6498 29798.5482 123.5074 224.6498
ENERGY: 300000 2.7760 8.2438 10.6490 0.0000 -10659.4065 1465.6323 0.0000 0.0000 1741.7409 -7430.3646 298.8862 -9172.1055 -7455.7040 300.6700 276.2732 349.0582 30282.5540 262.6527 349.1525
ENERGY: 600000 3.5610 7.1495 13.0742 0.0000 -10613.4584 1373.2582 0.0000 0.0000 1764.8556 -7451.5600 302.8528 -9216.4156 -7476.0490 300.3143 -378.9495 -285.1451 29761.5239 158.6458 241.7280
ENERGY: 900000 2.8137 4.3834 9.5107 0.0000 -10579.8336 1433.6939 0.0000 0.0000 1707.1070 -7422.3248 292.9430 -9129.4319 -7477.5209 300.5126 92.2462 209.5843 30232.4036 100.9811 181.8619
ENERGY: 1200000 3.2407 13.1212 6.9601 0.0000 -10704.2191 1431.7833 0.0000 0.0000 1739.8094 -7509.3043 298.5548 -9249.1137 -7473.7482 300.1757 -400.1498 -372.0915 30312.1876 -0.9039 72.3305
ENERGY: 1500000 1.5745 10.2334 8.3199 0.0000 -10592.5347 1361.5736 0.0000 0.0000 1816.1339 -7394.6993 311.6522 -9210.8332 -7471.9847 300.6095 -427.1806 -415.7585 30105.7561 -2.6832 70.4165
TCL: Running FEP window   3: Lambda1 0.1    Lambda2 0.15000000000000002 [dLambda 0.05000000000000002]
TCL: Setting parameter firsttimestep to 0
TCL: Setting parameter alchLambda to 0.1
Info: NONBONDED TABLE R-SQUARED SPACING: 0.0625
Info: NONBONDED TABLE SIZE: 705 POINTS
TCL: Setting parameter alchLambda2 to 0.15000000000000002
Info: NONBONDED TABLE R-SQUARED SPACING: 0.0625
Info: NONBONDED TABLE SIZE: 705 POINTS
TCL: Running for 1500000 steps
ETITLE: TS BOND ANGLE DIHED IMPRP ELECT VDW BOUNDARY MISC KINETIC TOTAL TEMP POTENTIAL TOTALAVG TEMPAVG PRESSURE GPRESSURE VOLUME PRESSAVG GPRESSAVG
ENERGY: 0 1.5745 10.2334 8.3199 0.0000 -10592.5343 1361.6640 0.0000 0.0000 1815.2664 -7395.4760 311.5034 -9210.7424 -7395.4760 311.5034 -498.7662 -414.6905 30105.7561 -498.7662 -414.6905
ENERGY: 300000 3.7197 14.7403 7.6051 0.0000 -10456.8767 1306.1041 0.0000 0.0000 1786.1255 -7338.5820 306.5027 -9124.7075 -7428.9475 301.6651 -1025.4921 -946.3171 30449.8942 -453.3374 -374.6844
ENERGY: 600000 3.5830 7.8541 11.1792 0.0000 -10623.0472 1441.9133 0.0000 0.0000 1738.9156 -7419.6020 298.4014 -9158.5176 -7437.1452 301.7864 590.4649 653.0767 29523.6953 -239.5039 -159.0756
ENERGY: 900000 1.7219 12.5753 10.7526 0.0000 -10615.9066 1381.2436 0.0000 0.0000 1705.2561 -7504.3571 292.6254 -9209.6132 -7440.3831 300.5349 -256.8364 -100.9969 29755.5389 -213.2459 -131.1421
ENERGY: 1200000 1.2916 10.9531 7.7287 0.0000 -10756.6354 1530.5968 0.0000 0.0000 1727.9649 -7478.1004 296.5222 -9206.0653 -7440.5368 299.9602 648.6091 634.7250 30174.4548 -162.4104 -90.3892
ENERGY: 1500000 5.1796 8.5256 8.5119 0.0000 -10818.5686 1503.0612 0.0000 0.0000 1769.1905 -7524.0998 303.5966 -9293.2903 -7446.8779 300.3626 266.5476 323.2381 29717.2015 -63.0236 11.2047
TCL: Running FEP window   4: Lambda1 0.15000000000000002 Lambda2 0.2    [dLambda 0.04999999999999999]
TCL: Setting parameter firsttimestep to 0
TCL: Setting parameter alchLambda to 0.15000000000000002
Info: NONBONDED TABLE R-SQUARED SPACING: 0.0625
Info: NONBONDED TABLE SIZE: 705 POINTS
TCL: Setting parameter alchLambda2 to 0.2
Info: NONBONDED TABLE R-SQUARED SPACING: 0.0625
Info: NONBONDED TABLE SIZE: 705 POINTS
TCL: Running for 1500000 steps
ETITLE: TS BOND ANGLE DIHED IMPRP ELECT VDW BOUNDARY MISC KINETIC TOTAL TEMP POTENTIAL TOTALAVG TEMPAVG PRESSURE GPRESSURE VOLUME PRESSAVG GPRESSAVG
ENERGY: 0 5.1796 8.5256 8.5119 0.0000 -10818.5685 1504.5804 0.0000 0.0000 1768.3045 -7523.4665 303.4446 -9291.7710 -7523.4665 303.4446 253.6297 336.2492 29717.2015 253.6297 336.2492
ENERGY: 300000 4.9199 11.0412 10.2106 0.0000 -10778.3267 1471.0858 0.0000 0.0000 1752.4222 -7528.6471 300.7192 -9281.0692 -7515.7846 301.8444 334.3430 379.3890 29605.7477 258.8554 305.9370
ENERGY: 600000 4.1987 10.6024 10.1805 0.0000 -10733.9233 1521.6883 0.0000 0.0000 1778.1850 -7409.0684 305.1401 -9187.2534 -7483.7849 303.2565 763.4698 770.5798 30316.6278 347.6029 390.2152
ENERGY: 900000 2.6275 12.1862 9.8051 0.0000 -10454.1260 1308.8324 0.0000 0.0000 1737.3777 -7383.2971 298.1375 -9120.6748 -7462.5672 302.6075 -618.2139 -550.4388 30249.6910 113.9368 164.5075
ENERGY: 1200000 1.8155 7.5716 9.9509 0.0000 -10730.3051 1498.2317 0.0000 0.0000 1732.2957 -7480.4397 297.2654 -9212.7354 -7453.4620 303.0127 746.6607 804.4859 29474.7432 92.1714 148.9538
ENERGY: 1500000 1.6437 7.9056 9.9587 0.0000 -10754.5644 1413.6278 0.0000 0.0000 1748.9251 -7572.5034 300.1191 -9321.4285 -7463.7375 302.5031 -400.1933 -330.3501 29924.4642 -67.0722 -12.1503
TCL: Running FEP window   5: Lambda1 0.2    Lambda2 0.25   [dLambda 0.04999999999999999]
TCL: Setting parameter firsttimestep to 0
TCL: Setting parameter alchLambda to 0.2
Info: NONBONDED TABLE R-SQUARED SPACING: 0.0625
Info: NONBONDED TABLE SIZE: 705 POINTS
TCL: Setting parameter alchLambda2 to 0.25
Info: NONBONDED TABLE R-SQUARED SPACING: 0.0625
Info: NONBONDED TABLE SIZE: 705 POINTS
TCL: Running for 1500000 steps
ETITLE: TS BOND ANGLE DIHED IMPRP ELECT VDW BOUNDARY MISC KINETIC TOTAL TEMP POTENTIAL TOTALAVG TEMPAVG PRESSURE GPRESSURE VOLUME PRESSAVG GPRESSAVG
ENERGY: 0 1.6437 7.9056 9.9587 0.0000 -10754.5638 1413.4776 0.0000 0.0000 1748.0838 -7573.4943 299.9747 -9321.5781 -7573.4943 299.9747 -411.0488 -324.5719 29924.4642 -411.0488 -324.5719
ENERGY: 300000 2.6202 13.6611 10.9400 0.0000 -10648.9635 1477.9317 0.0000 0.0000 1796.6899 -7347.1207 308.3156 -9143.8105 -7456.3274 300.7592 491.9542 585.5705 30027.0376 115.5235 176.9905
ENERGY: 600000 1.4280 5.9179 11.3701 0.0000 -10635.2525 1463.5631 0.0000 0.0000 1754.8389 -7398.1344 301.1339 -9152.9733 -7461.6459 299.2691 433.3644 553.9818 30013.1773 146.0205 220.3363
ENERGY: 900000 4.6856 12.5636 8.2454 0.0000 -10703.2917 1443.0719 0.0000 0.0000 1761.3729 -7473.3523 302.2551 -9234.7252 -7455.2348 301.4697 410.1881 469.5169 29272.5382 109.8797 181.9152
ENERGY: 1200000 2.3389 13.4533 6.9221 0.0000 -10660.7858 1431.2269 0.0000 0.0000 1788.5023 -7418.3422 306.9106 -9206.8445 -7453.6797 302.1989 90.6934 123.9672 30262.5108 -33.6401 39.6834
ENERGY: 1500000 3.1522 8.9083 7.6980 0.0000 -10820.5713 1585.9328 0.0000 0.0000 1763.3810 -7451.4990 302.5997 -9214.8800 -7454.4905 302.0405 1125.6282 1181.9529 30161.3740 75.8221 150.8057
TCL: Running FEP window   6: Lambda1 0.25   Lambda2 0.3    [dLambda 0.04999999999999999]
TCL: Setting parameter firsttimestep to 0
TCL: Setting parameter alchLambda to 0.25
Info: NONBONDED TABLE R-SQUARED SPACING: 0.0625
Info: NONBONDED TABLE SIZE: 705 POINTS
TCL: Setting parameter alchLambda2 to 0.3
Info: NONBONDED TABLE R-SQUARED SPACING: 0.0625
Info: NONBONDED TABLE SIZE: 705 POINTS
TCL: Running for 1500000 steps
ETITLE: TS BOND ANGLE DIHED IMPRP ELECT VDW BOUNDARY MISC KINETIC TOTAL TEMP POTENTIAL TOTALAVG TEMPAVG PRESSURE GPRESSURE VOLUME PRESSAVG GPRESSAVG
ENERGY: 0 3.1522 8.9083 7.6980 0.0000 -10820.5716 1585.3144 0.0000 0.0000 1762.5207 -7452.9781 302.4521 -9215.4988 -7452.9781 302.4521 1105.1183 1184.7211 30161.3740 1105.1183 1184.7211
ENERGY: 300000 6.2564 10.9856 9.0313 0.0000 -10707.0916 1460.7033 0.0000 0.0000 1759.3614 -7460.7536 301.9099 -9220.1150 -7455.5189 300.7654 505.1796 542.4951 29750.2648 243.2496 288.4822
ENERGY: 600000 3.1123 10.7939 7.9772 0.0000 -10662.7310 1445.9880 0.0000 0.0000 1776.8981 -7417.9615 304.9193 -9194.8596 -7470.5990 299.3855 -80.5596 26.3890 30434.6528 243.1959 305.5726
ENERGY: 900000 2.1798 9.1159 10.8356 0.0000 -10668.1923 1469.4834 0.0000 0.0000 1789.7827 -7386.7948 307.1303 -9176.5775 -7452.9990 301.3842 448.8821 506.9107 29929.3655 235.5294 298.1560
ENERGY: 1200000 1.9286 12.3189 9.6859 0.0000 -10743.7590 1458.1471 0.0000 0.0000 1823.0151 -7438.6636 312.8330 -9261.6786 -7451.2832 302.6147 347.5470 401.0280 29485.6839 218.5072 278.5622
ENERGY: 1500000 3.0591 6.7344 9.3057 0.0000 -10694.6862 1468.2245 0.0000 0.0000 1737.4575 -7469.9051 298.1512 -9207.3625 -7448.4876 302.5674 331.6961 432.5699 29885.3588 196.1973 256.6655
TCL: Running FEP window   7: Lambda1 0.3    Lambda2 0.35   [dLambda 0.04999999999999999]
TCL: Setting parameter firsttimestep to 0
TCL: Setting parameter alchLambda to 0.3
Info: NONBONDED TABLE R-SQUARED SPACING: 0.0625
Info: NONBONDED TABLE SIZE: 705 POINTS
TCL: Setting parameter alchLambda2 to 0.35
Info: NONBONDED TABLE R-SQUARED SPACING: 0.0625
Info: NONBONDED TABLE SIZE: 705 POINTS
TCL: Running for 1500000 steps
ETITLE: TS BOND ANGLE DIHED IMPRP ELECT VDW BOUNDARY MISC KINETIC TOTAL TEMP POTENTIAL TOTALAVG TEMPAVG PRESSURE GPRESSURE VOLUME PRESSAVG GPRESSAVG
ENERGY: 0 3.0591 6.7344 9.3057 0.0000 -10694.6874 1470.0219 0.0000 0.0000 1736.5834 -7468.9830 298.0012 -9205.5664 -7468.9830 298.0012 357.7667 442.8155 29885.3588 357.7667 442.8155
ENERGY: 300000 5.8797 7.1437 8.0877 0.0000 -10762.8775 1498.3921 0.0000 0.0000 1762.2573 -7481.1171 302.4069 -9243.3744 -7476.8321 299.7189 254.0818 296.3078 30275.2112 145.9122 175.2098
ENERGY: 600000 3.4263 7.4669 7.5068 0.0000 -10804.5870 1499.9047 0.0000 0.0000 1792.9358 -7493.3465 307.6714 -9286.2824 -7461.9434 300.9795 645.9348 671.6768 29585.0046 213.6033 244.9815
ENERGY: 900000 3.6854 11.2551 9.6361 0.0000 -10691.4149 1468.0381 0.0000 0.0000 1779.0999 -7419.7003 305.2971 -9198.8002 -7456.5993 301.2567 113.7409 199.7767 30103.5751 250.9935 295.8689
ENERGY: 1200000 4.8283 11.9824 8.0533 0.0000 -10639.3162 1439.4432 0.0000 0.0000 1819.0645 -7355.9445 312.1551 -9175.0089 -7452.5915 300.9803 259.0009 307.8503 29891.8137 200.6386 252.3434
ENERGY: 1500000 3.1615 6.7198 8.8710 0.0000 -10685.4048 1422.3532 0.0000 0.0000 1750.2992 -7494.0001 300.3549 -9244.2994 -7453.3744 300.7416 -276.4970 -170.4583 30056.9922 153.3849 213.4785
TCL: Running FEP window   8: Lambda1 0.35   Lambda2 0.39999999999999997 [dLambda 0.04999999999999999]
TCL: Setting parameter firsttimestep to 0
TCL: Setting parameter alchLambda to 0.35
Info: NONBONDED TABLE R-SQUARED SPACING: 0.0625
Info: NONBONDED TABLE SIZE: 705 POINTS
TCL: Setting parameter alchLambda2 to 0.39999999999999997
Info: NONBONDED TABLE R-SQUARED SPACING: 0.0625
Info: NONBONDED TABLE SIZE: 705 POINTS
TCL: Running for 1500000 steps
ETITLE: TS BOND ANGLE DIHED IMPRP ELECT VDW BOUNDARY MISC KINETIC TOTAL TEMP POTENTIAL TOTALAVG TEMPAVG PRESSURE GPRESSURE VOLUME PRESSAVG GPRESSAVG
ENERGY: 0 3.1615 6.7198 8.8711 0.0000 -10685.4053 1422.9938 0.0000 0.0000 1749.4388 -7494.2204 300.2072 -9243.6592 -7494.2204 300.2072 -244.4483 -159.4663 30056.9922 -244.4483 -159.4663
ENERGY: 300000 4.4271 8.5157 10.5206 0.0000 -10725.6229 1469.2676 0.0000 0.0000 1717.2927 -7515.5991 294.6909 -9232.8919 -7468.1655 299.7539 531.3601 632.6186 29614.9745 -377.8117 -317.8828
ENERGY: 600000 5.0447 5.5535 9.2287 0.0000 -10640.5775 1479.7244 0.0000 0.0000 1787.7274 -7353.2987 306.7776 -9141.0261 -7454.9690 299.5814 792.6988 894.2945 29913.9101 -310.0539 -240.0430
ENERGY: 900000 3.4294 9.9275 10.1750 0.0000 -10656.3069 1463.4447 0.0000 0.0000 1740.7326 -7428.5978 298.7132 -9169.3303 -7443.4003 300.9016 525.4503 614.8987 29580.7697 -268.4134 -193.7621
ENERGY: 1200000 1.6498 7.7077 11.3513 0.0000 -10803.1241 1499.8200 0.0000 0.0000 1766.0535 -7516.5419 303.0583 -9282.5953 -7455.8635 300.6419 118.0146 148.0063 30195.6510 -151.9886 -80.8828
ENERGY: 1500000 3.6961 11.2512 8.6949 0.0000 -10671.7709 1438.3306 0.0000 0.0000 1822.2550 -7387.5431 312.7026 -9209.7980 -7452.2097 300.5855 83.6338 122.2254 30217.8394 -109.5683 -36.9855
TCL: Running FEP window   9: Lambda1 0.39999999999999997 Lambda2 0.44999999999999996 [dLambda 0.04999999999999999]
TCL: Setting parameter firsttimestep to 0
TCL: Setting parameter alchLambda to 0.39999999999999997
Info: NONBONDED TABLE R-SQUARED SPACING: 0.0625
Info: NONBONDED TABLE SIZE: 705 POINTS
TCL: Setting parameter alchLambda2 to 0.44999999999999996
Info: NONBONDED TABLE R-SQUARED SPACING: 0.0625
Info: NONBONDED TABLE SIZE: 705 POINTS
TCL: Running for 1500000 steps
ETITLE: TS BOND ANGLE DIHED IMPRP ELECT VDW BOUNDARY MISC KINETIC TOTAL TEMP POTENTIAL TOTALAVG TEMPAVG PRESSURE GPRESSURE VOLUME PRESSAVG GPRESSAVG
ENERGY: 0 3.6961 11.2513 8.6949 0.0000 -10671.7697 1437.7486 0.0000 0.0000 1821.3894 -7388.9894 312.5541 -9210.3789 -7388.9894 312.5541 43.8298 122.8917 30217.8394 43.8298 122.8917
ENERGY: 300000 1.9465 11.9829 11.0706 0.0000 -10640.3145 1406.9760 0.0000 0.0000 1745.8907 -7462.4479 299.5983 -9208.3386 -7448.8995 303.3114 -100.1276 17.0250 30025.8101 119.7650 197.5326
ENERGY: 600000 1.6833 10.2967 13.7250 0.0000 -10736.4600 1498.0248 0.0000 0.0000 1716.6941 -7496.0361 294.5882 -9212.7302 -7453.9575 298.7576 607.3671 571.3847 30026.3736 187.7409 246.2573
ENERGY: 900000 2.8245 8.8363 8.2748 0.0000 -10564.3534 1339.5005 0.0000 0.0000 1738.3532 -7466.5641 298.3049 -9204.9174 -7470.8851 298.5166 -285.1863 -233.7024 29760.2227 40.3214 96.5833
ENERGY: 1200000 2.0165 8.9763 8.0878 0.0000 -10544.8114 1411.0120 0.0000 0.0000 1762.4280 -7352.2909 302.4362 -9114.7189 -7448.0737 300.8400 -228.5479 -186.1609 30657.3660 104.8333 152.6624
ENERGY: 1500000 3.9952 12.3867 9.2959 0.0000 -10840.4583 1575.0203 0.0000 0.0000 1710.7544 -7529.0059 293.5689 -9239.7603 -7454.2902 300.1269 1375.4621 1367.5295 29720.3255 95.6754 145.3974
TCL: Running FEP window  10: Lambda1 0.44999999999999996 Lambda2 0.49999999999999994 [dLambda 0.04999999999999999]
TCL: Setting parameter firsttimestep to 0
TCL: Setting parameter alchLambda to 0.44999999999999996
Info: NONBONDED TABLE R-SQUARED SPACING: 0.0625
Info: NONBONDED TABLE SIZE: 705 POINTS
TCL: Setting parameter alchLambda2 to 0.49999999999999994
Info: NONBONDED TABLE R-SQUARED SPACING: 0.0625
Info: NONBONDED TABLE SIZE: 705 POINTS
TCL: Running for 1500000 steps
ETITLE: TS BOND ANGLE DIHED IMPRP ELECT VDW BOUNDARY MISC KINETIC TOTAL TEMP POTENTIAL TOTALAVG TEMPAVG PRESSURE GPRESSURE VOLUME PRESSAVG GPRESSAVG
ENERGY: 0 3.9952 12.3867 9.2959 0.0000 -10840.4578 1575.5082 0.0000 0.0000 1709.8750 -7529.3968 293.4180 -9239.2718 -7529.3968 293.4180 1305.2972 1380.0992 29720.3255 1305.2972 1380.0992
ENERGY: 300000 6.3057 10.4200 7.9189 0.0000 -10743.8949 1461.5179 0.0000 0.0000 1787.7880 -7469.9445 306.7880 -9257.7325 -7499.0222 299.1711 230.9071 301.5430 30030.1624 234.7731 317.4649
ENERGY: 600000 2.9184 4.5041 9.6870 0.0000 -10672.4013 1355.9730 0.0000 0.0000 1739.3562 -7559.9625 298.4770 -9299.3187 -7471.9716 300.9344 -688.0065 -609.1148 29869.3285 -57.7494 20.4717
ENERGY: 900000 3.3006 7.2432 8.8607 0.0000 -10746.0198 1418.5310 0.0000 0.0000 1707.7837 -7600.3006 293.0591 -9308.0842 -7495.4163 299.8944 -613.8650 -577.7403 30180.2422 -52.7236 24.5564
ENERGY: 1200000 2.4308 10.4059 8.0568 0.0000 -10587.2496 1350.6282 0.0000 0.0000 1771.7714 -7443.9565 304.0395 -9215.7279 -7487.8017 300.6660 -233.2355 -199.1932 29610.1348 -126.5167 -50.1858
ENERGY: 1500000 1.1148 15.0653 9.8689 0.0000 -10705.5331 1504.4027 0.0000 0.0000 1730.1671 -7444.9143 296.9002 -9175.0814 -7483.6398 300.3827 874.3335 893.1332 29845.6726 -104.6031 -35.7187
TCL: Running FEP window  11: Lambda1 0.49999999999999994 Lambda2 0.5499999999999999 [dLambda 0.04999999999999999]
TCL: Setting parameter firsttimestep to 0
TCL: Setting parameter alchLambda to 0.49999999999999994
Info: NONBONDED TABLE R-SQUARED SPACING: 0.0625
Info: NONBONDED TABLE SIZE: 705 POINTS
TCL: Setting parameter alchLambda2 to 0.5499999999999999
Info: NONBONDED TABLE R-SQUARED SPACING: 0.0625
Info: NONBONDED TABLE SIZE: 705 POINTS
TCL: Running for 1500000 steps
ETITLE: TS BOND ANGLE DIHED IMPRP ELECT VDW BOUNDARY MISC KINETIC TOTAL TEMP POTENTIAL TOTALAVG TEMPAVG PRESSURE GPRESSURE VOLUME PRESSAVG GPRESSAVG
ENERGY: 0 1.1148 15.0653 9.8689 0.0000 -10705.5336 1505.1718 0.0000 0.0000 1729.2672 -7445.0456 296.7457 -9174.3128 -7445.0456 296.7457 818.0157 909.1650 29845.6726 818.0157 909.1650
ENERGY: 300000 2.7396 8.1533 7.8881 0.0000 -10560.0443 1400.8752 0.0000 0.0000 1770.1031 -7370.2850 303.7532 -9140.3880 -7446.9306 300.7942 274.6760 296.1115 29785.6318 -6.2689 64.0291
ENERGY: 600000 3.3472 10.8962 7.1527 0.0000 -10515.1586 1368.6903 0.0000 0.0000 1767.9273 -7357.1449 303.3799 -9125.0721 -7452.6004 299.6808 -178.0945 -134.7737 30198.9288 -154.4630 -89.2105
ENERGY: 900000 4.0587 14.1521 10.0469 0.0000 -10767.3535 1447.0459 0.0000 0.0000 1712.2816 -7579.7683 293.8310 -9292.0499 -7460.2346 298.5859 -354.1709 -307.3983 30369.8847 -119.6702 -73.6324
ENERGY: 1200000 3.7198 9.4757 9.3808 0.0000 -10652.0338 1392.4445 0.0000 0.0000 1780.9573 -7456.0557 305.6159 -9237.0130 -7455.4119 300.0235 -164.5276 -72.4884 29804.7025 -51.3457 -0.5277
ENERGY: 1500000 5.3646 10.6483 8.0513 0.0000 -10774.1552 1423.3149 0.0000 0.0000 1709.1759 -7617.6003 293.2980 -9326.7762 -7465.9486 299.2874 -276.3870 -241.5057 29767.8860 33.3134 92.0073
TCL: Running FEP window  12: Lambda1 0.5499999999999999 Lambda2 0.6    [dLambda 0.050000000000000044]
TCL: Setting parameter firsttimestep to 0
TCL: Setting parameter alchLambda to 0.5499999999999999
Info: NONBONDED TABLE R-SQUARED SPACING: 0.0625
Info: NONBONDED TABLE SIZE: 705 POINTS
TCL: Setting parameter alchLambda2 to 0.6
Info: NONBONDED TABLE R-SQUARED SPACING: 0.0625
Info: NONBONDED TABLE SIZE: 705 POINTS
TCL: Running for 1500000 steps
ETITLE: TS BOND ANGLE DIHED IMPRP ELECT VDW BOUNDARY MISC KINETIC TOTAL TEMP POTENTIAL TOTALAVG TEMPAVG PRESSURE GPRESSURE VOLUME PRESSAVG GPRESSAVG
ENERGY: 0 5.3646 10.6483 8.0513 0.0000 -10773.9421 1422.7711 0.0000 0.0000 1708.3161 -7618.7908 293.1505 -9327.1069 -7618.7908 293.1505 -314.9004 -236.1314 29767.8860 -314.9004 -236.1314
ENERGY: 300000 5.3173 9.3653 9.8682 0.0000 -10678.3640 1399.8558 0.0000 0.0000 1754.9118 -7499.0456 301.1464 -9253.9574 -7534.4912 300.9166 -331.1379 -274.7573 29988.0115 -61.9072 -8.8120
ENERGY: 600000 4.9122 9.3139 8.1903 0.0000 -10649.1019 1363.4259 0.0000 0.0000 1735.0745 -7528.1852 297.7423 -9263.2597 -7513.7901 300.9806 -397.9195 -292.8351 29408.1624 -188.6124 -120.2604
ENERGY: 900000 3.9804 8.4679 11.5816 0.0000 -10720.8427 1473.5030 0.0000 0.0000 1747.6106 -7475.6990 299.8935 -9223.3097 -7484.9724 301.3231 8.4786 103.5035 30366.1237 -275.4614 -201.7808
ENERGY: 1200000 7.5116 9.7974 7.5296 0.0000 -10640.7561 1400.8022 0.0000 0.0000 1735.8922 -7479.2230 297.8826 -9215.1152 -7484.7586 300.7637 -490.4471 -399.7643 30339.9583 -323.2858 -246.9807
ENERGY: 1500000 1.1488 10.7372 10.3216 0.0000 -10694.2583 1459.9895 0.0000 0.0000 1731.8366 -7480.2246 297.1866 -9212.0613 -7485.2847 300.4690 300.4498 275.5393 30197.7702 -230.2356 -165.2359
TCL: Running FEP window  13: Lambda1 0.6    Lambda2 0.65   [dLambda 0.050000000000000044]
TCL: Setting parameter firsttimestep to 0
TCL: Setting parameter alchLambda to 0.6
Info: NONBONDED TABLE R-SQUARED SPACING: 0.0625
Info: NONBONDED TABLE SIZE: 705 POINTS
TCL: Setting parameter alchLambda2 to 0.65
Info: NONBONDED TABLE R-SQUARED SPACING: 0.0625
Info: NONBONDED TABLE SIZE: 705 POINTS
TCL: Running for 1500000 steps
ETITLE: TS BOND ANGLE DIHED IMPRP ELECT VDW BOUNDARY MISC KINETIC TOTAL TEMP POTENTIAL TOTALAVG TEMPAVG PRESSURE GPRESSURE VOLUME PRESSAVG GPRESSAVG
ENERGY: 0 1.1488 10.7372 10.3216 0.0000 -10694.1045 1460.1725 0.0000 0.0000 1730.9590 -7480.7654 297.0360 -9211.7244 -7480.7654 297.0360 216.8232 286.4419 30197.7702 216.8232 286.4419
ENERGY: 300000 4.7279 8.2832 13.2741 0.0000 -10654.8945 1420.9033 0.0000 0.0000 1731.0041 -7476.7019 297.0438 -9207.7060 -7482.9009 300.2092 64.9597 86.9312 29848.7561 162.8592 223.7188
ENERGY: 600000 1.8762 8.3762 8.7853 0.0000 -10677.5315 1478.8909 0.0000 0.0000 1689.8543 -7489.7485 289.9824 -9179.6028 -7485.2585 300.0970 225.4787 272.7695 30519.3341 112.8257 175.9994
ENERGY: 900000 4.0724 9.3478 7.6696 0.0000 -10661.3648 1425.7841 0.0000 0.0000 1760.2553 -7454.2356 302.0633 -9214.4909 -7472.5249 301.1296 137.0452 207.6489 29944.0612 150.9522 206.4696
ENERGY: 1200000 1.8643 7.7390 11.2935 0.0000 -10594.9216 1358.1031 0.0000 0.0000 1744.3160 -7471.6057 299.3281 -9215.9217 -7454.5972 301.3589 -119.4570 -58.6871 29635.8144 182.8786 239.9680
ENERGY: 1500000 4.2954 7.4888 10.0414 0.0000 -10598.6476 1377.6790 0.0000 0.0000 1743.0041 -7456.1388 299.1030 -9199.1430 -7464.8375 300.6131 -341.5313 -170.1284 30003.6244 101.0746 169.9545
TCL: Running FEP window  14: Lambda1 0.65   Lambda2 0.7000000000000001 [dLambda 0.050000000000000044]
TCL: Setting parameter firsttimestep to 0
TCL: Setting parameter alchLambda to 0.65
Info: NONBONDED TABLE R-SQUARED SPACING: 0.0625
Info: NONBONDED TABLE SIZE: 705 POINTS
TCL: Setting parameter alchLambda2 to 0.7000000000000001
Info: NONBONDED TABLE R-SQUARED SPACING: 0.0625
Info: NONBONDED TABLE SIZE: 705 POINTS
TCL: Running for 1500000 steps
ETITLE: TS BOND ANGLE DIHED IMPRP ELECT VDW BOUNDARY MISC KINETIC TOTAL TEMP POTENTIAL TOTALAVG TEMPAVG PRESSURE GPRESSURE VOLUME PRESSAVG GPRESSAVG
ENERGY: 0 4.2954 7.4888 10.0414 0.0000 -10599.1978 1376.8777 0.0000 0.0000 1742.1419 -7458.3525 298.9551 -9200.4944 -7458.3525 298.9551 -253.6880 -170.1335 30003.6244 -253.6880 -170.1335
ENERGY: 300000 2.5047 13.6195 11.9943 0.0000 -10542.2166 1345.4464 0.0000 0.0000 1772.5466 -7396.1052 304.1726 -9168.6517 -7419.9516 303.7263 -565.6209 -447.4798 30350.1290 -300.7978 -228.9756
ENERGY: 600000 0.9329 10.5540 10.5148 0.0000 -10597.6971 1400.5283 0.0000 0.0000 1746.2410 -7428.9260 299.6585 -9175.1671 -7418.9135 302.6276 -140.1099 -109.0933 30422.6631 -276.1532 -218.2957
ENERGY: 900000 3.1197 12.0967 9.5684 0.0000 -10543.3744 1328.6788 0.0000 0.0000 1750.9690 -7438.9419 300.4698 -9189.9109 -7415.5804 302.9314 -708.8024 -653.1033 30253.7114 -317.8256 -259.6210
ENERGY: 1200000 3.1546 9.1407 8.5804 0.0000 -10683.5732 1422.8767 0.0000 0.0000 1744.0779 -7495.7428 299.2873 -9239.8207 -7428.7041 302.2864 -48.4424 35.1254 29886.5489 -324.0262 -264.7320
ENERGY: 1500000 2.3725 8.2328 7.8010 0.0000 -10712.5625 1417.7845 0.0000 0.0000 1763.4719 -7512.8998 302.6153 -9276.3718 -7431.1370 302.6886 -61.2805 -5.6625 29969.2166 -244.7357 -186.0298
TCL: Running FEP window  15: Lambda1 0.7000000000000001 Lambda2 0.7500000000000001 [dLambda 0.050000000000000044]
TCL: Setting parameter firsttimestep to 0
TCL: Setting parameter alchLambda to 0.7000000000000001
Info: NONBONDED TABLE R-SQUARED SPACING: 0.0625
Info: NONBONDED TABLE SIZE: 705 POINTS
TCL: Setting parameter alchLambda2 to 0.7500000000000001
Info: NONBONDED TABLE R-SQUARED SPACING: 0.0625
Info: NONBONDED TABLE SIZE: 705 POINTS
TCL: Running for 1500000 steps
ETITLE: TS BOND ANGLE DIHED IMPRP ELECT VDW BOUNDARY MISC KINETIC TOTAL TEMP POTENTIAL TOTALAVG TEMPAVG PRESSURE GPRESSURE VOLUME PRESSAVG GPRESSAVG
ENERGY: 0 2.3725 8.2328 7.8010 0.0000 -10713.5346 1417.0307 0.0000 0.0000 1762.5690 -7515.5286 302.4604 -9278.0976 -7515.5286 302.4604 -71.2283 -3.7228 29969.2166 -71.2283 -3.7228
ENERGY: 300000 6.3674 7.0624 11.7868 0.0000 -10548.4667 1342.6042 0.0000 0.0000 1726.0990 -7454.5468 296.2021 -9180.6458 -7510.3895 298.4359 -529.6659 -467.1910 30688.5197 -246.0909 -178.3711
ENERGY: 600000 1.7279 10.6930 12.7556 0.0000 -10609.7119 1416.5450 0.0000 0.0000 1720.5937 -7447.3968 295.2573 -9167.9905 -7483.7974 298.5739 83.6988 149.3820 30197.0769 -25.2498 42.4167
ENERGY: 900000 6.3317 14.2343 10.4756 0.0000 -10700.3244 1371.7866 0.0000 0.0000 1781.5200 -7515.9762 305.7124 -9297.4962 -7481.7368 299.2951 -779.2127 -728.8517 30278.1279 -88.6112 -27.9070
ENERGY: 1200000 4.0924 9.1665 8.1077 0.0000 -10433.9143 1273.7833 0.0000 0.0000 1738.4150 -7400.3493 298.3155 -9138.7643 -7472.4320 298.6002 -1241.4383 -1182.3151 30851.3823 -161.2593 -89.8526
ENERGY: 1500000 2.1677 9.1824 9.3258 0.0000 -10553.3020 1363.4411 0.0000 0.0000 1731.3908 -7437.7942 297.1101 -9169.1850 -7468.2356 298.2064 -443.8402 -362.1885 30299.7048 -84.8021 -10.5537
TCL: Running FEP window  16: Lambda1 0.7500000000000001 Lambda2 0.8000000000000002 [dLambda 0.050000000000000044]
TCL: Setting parameter firsttimestep to 0
TCL: Setting parameter alchLambda to 0.7500000000000001
Info: NONBONDED TABLE R-SQUARED SPACING: 0.0625
Info: NONBONDED TABLE SIZE: 705 POINTS
TCL: Setting parameter alchLambda2 to 0.8000000000000002
Info: NONBONDED TABLE R-SQUARED SPACING: 0.0625
Info: NONBONDED TABLE SIZE: 705 POINTS
TCL: Running for 1500000 steps
ETITLE: TS BOND ANGLE DIHED IMPRP ELECT VDW BOUNDARY MISC KINETIC TOTAL TEMP POTENTIAL TOTALAVG TEMPAVG PRESSURE GPRESSURE VOLUME PRESSAVG GPRESSAVG
ENERGY: 0 2.1677 9.1824 9.3258 0.0000 -10555.2062 1364.6700 0.0000 0.0000 1730.5095 -7439.3507 296.9589 -9169.8603 -7439.3507 296.9589 -417.5604 -341.7719 30299.7048 -417.5604 -341.7719
ENERGY: 300000 2.8842 11.2491 10.5396 0.0000 -10531.1752 1319.9904 0.0000 0.0000 1714.3174 -7472.1945 294.1803 -9186.5119 -7461.5823 298.0065 -960.8458 -879.7590 30585.5426 -229.1405 -143.8830
ENERGY: 600000 1.2797 8.1636 10.4472 0.0000 -10752.3281 1397.0750 0.0000 0.0000 1774.7974 -7560.5652 304.5588 -9335.3626 -7478.4806 299.3387 -184.2855 -179.1610 29560.6999 -192.3689 -121.8862
ENERGY: 900000 6.6917 12.9552 8.6592 0.0000 -10672.9420 1443.7510 0.0000 0.0000 1694.2777 -7506.6071 290.7415 -9200.8848 -7473.2888 299.5015 70.4596 147.3185 30328.1123 -103.5066 -39.0909
ENERGY: 1200000 5.5983 15.2812 8.0804 0.0000 -10652.0527 1444.2981 0.0000 0.0000 1769.1989 -7409.5958 303.5981 -9178.7947 -7463.0654 300.5619 482.5172 536.4978 30055.9193 -41.9636 23.4696
ENERGY: 1500000 1.6183 6.6786 9.8223 0.0000 -10659.4156 1456.5275 0.0000 0.0000 1783.5590 -7401.2099 306.0623 -9184.7689 -7468.5975 299.9494 508.1639 501.9781 30066.8466 -34.9061 28.9000
TCL: Running FEP window  17: Lambda1 0.8000000000000002 Lambda2 0.8500000000000002 [dLambda 0.050000000000000044]
TCL: Setting parameter firsttimestep to 0
TCL: Setting parameter alchLambda to 0.8000000000000002
Info: NONBONDED TABLE R-SQUARED SPACING: 0.0625
Info: NONBONDED TABLE SIZE: 705 POINTS
TCL: Setting parameter alchLambda2 to 0.8500000000000002
Info: NONBONDED TABLE R-SQUARED SPACING: 0.0625
Info: NONBONDED TABLE SIZE: 705 POINTS
TCL: Running for 1500000 steps
ETITLE: TS BOND ANGLE DIHED IMPRP ELECT VDW BOUNDARY MISC KINETIC TOTAL TEMP POTENTIAL TOTALAVG TEMPAVG PRESSURE GPRESSURE VOLUME PRESSAVG GPRESSAVG
ENERGY: 0 1.6183 6.6786 9.8223 0.0000 -10659.9935 1456.1914 0.0000 0.0000 1782.6923 -7402.9907 305.9136 -9185.6830 -7402.9907 305.9136 434.6554 510.7678 30066.8466 434.6554 510.7678
ENERGY: 300000 3.1807 9.8594 9.6026 0.0000 -10552.2158 1361.4115 0.0000 0.0000 1774.0786 -7394.0831 304.4354 -9168.1616 -7427.1939 302.2791 -617.1505 -569.2452 30830.7279 -10.3894 84.2790
ENERGY: 600000 4.1827 7.8830 13.6635 0.0000 -10684.3656 1399.0755 0.0000 0.0000 1748.8440 -7510.7170 300.1051 -9259.5610 -7456.0144 298.8176 -49.6770 8.2354 29775.2259 -103.4706 -21.5738
ENERGY: 900000 4.5227 12.5317 10.7041 0.0000 -10470.7237 1309.4980 0.0000 0.0000 1783.7909 -7349.6763 306.1021 -9133.4672 -7449.5467 299.7484 -808.6280 -680.3598 30439.8396 -210.6344 -120.8779
ENERGY: 1200000 3.4883 14.4572 10.1078 0.0000 -10559.6572 1328.3874 0.0000 0.0000 1768.3789 -7434.8376 303.4574 -9203.2166 -7448.3222 299.8254 -751.3107 -673.9373 30059.9200 -264.7357 -181.4378
ENERGY: 1500000 2.3069 7.2240 9.3827 0.0000 -10711.8513 1440.5570 0.0000 0.0000 1737.2901 -7515.0906 298.1225 -9252.3807 -7448.4800 299.9057 325.9642 401.6812 29663.0825 -215.5151 -139.1622
TCL: Running FEP window  18: Lambda1 0.8500000000000002 Lambda2 0.9000000000000002 [dLambda 0.050000000000000044]
TCL: Setting parameter firsttimestep to 0
TCL: Setting parameter alchLambda to 0.8500000000000002
Info: NONBONDED TABLE R-SQUARED SPACING: 0.0625
Info: NONBONDED TABLE SIZE: 705 POINTS
TCL: Setting parameter alchLambda2 to 0.9000000000000002
Info: NONBONDED TABLE R-SQUARED SPACING: 0.0625
Info: NONBONDED TABLE SIZE: 705 POINTS
TCL: Running for 1500000 steps
ETITLE: TS BOND ANGLE DIHED IMPRP ELECT VDW BOUNDARY MISC KINETIC TOTAL TEMP POTENTIAL TOTALAVG TEMPAVG PRESSURE GPRESSURE VOLUME PRESSAVG GPRESSAVG
ENERGY: 0 2.3069 7.2240 9.3827 0.0000 -10713.4897 1441.7588 0.0000 0.0000 1736.4205 -7516.3968 297.9732 -9252.8173 -7516.3968 297.9732 349.1782 428.5547 29663.0825 349.1782 428.5547
ENERGY: 300000 3.9227 11.2153 9.9649 0.0000 -10739.0318 1420.3096 0.0000 0.0000 1706.5562 -7587.0630 292.8485 -9293.6192 -7508.3640 297.8300 -146.4305 -106.9030 29970.8197 41.0875 110.1048
ENERGY: 600000 2.8465 9.1319 10.6958 0.0000 -10712.9218 1504.2902 0.0000 0.0000 1743.9769 -7441.9805 299.2699 -9185.9574 -7468.9423 298.6845 948.1365 967.7763 29830.0574 -54.9387 0.8685
ENERGY: 900000 4.7115 10.1304 8.3678 0.0000 -10704.2837 1408.9861 0.0000 0.0000 1743.7738 -7528.3143 299.2351 -9272.0880 -7466.3690 300.2505 -421.2202 -374.0092 30636.1736 -129.0226 -77.1817
ENERGY: 1200000 2.8168 10.4628 9.5957 0.0000 -10814.9850 1493.9002 0.0000 0.0000 1727.6406 -7570.5690 296.4666 -9298.2096 -7469.8852 300.5908 387.2325 503.5546 29970.8399 -156.8542 -100.4718
ENERGY: 1500000 3.7961 8.7759 7.9915 0.0000 -10636.8863 1402.3822 0.0000 0.0000 1768.8496 -7445.0910 303.5381 -9213.9406 -7476.7594 300.7736 -120.5967 -14.1423 30136.6799 -60.0851 -7.4081
TCL: Running FEP window  19: Lambda1 0.9000000000000002 Lambda2 0.9500000000000003 [dLambda 0.050000000000000044]
TCL: Setting parameter firsttimestep to 0
TCL: Setting parameter alchLambda to 0.9000000000000002
Info: NONBONDED TABLE R-SQUARED SPACING: 0.0625
Info: NONBONDED TABLE SIZE: 705 POINTS
TCL: Setting parameter alchLambda2 to 0.9500000000000003
Info: NONBONDED TABLE R-SQUARED SPACING: 0.0625
Info: NONBONDED TABLE SIZE: 705 POINTS
TCL: Running for 1500000 steps
ETITLE: TS BOND ANGLE DIHED IMPRP ELECT VDW BOUNDARY MISC KINETIC TOTAL TEMP POTENTIAL TOTALAVG TEMPAVG PRESSURE GPRESSURE VOLUME PRESSAVG GPRESSAVG
ENERGY: 0 3.7961 8.7759 7.9915 0.0000 -10639.1487 1403.7844 0.0000 0.0000 1767.9014 -7446.8995 303.3754 -9214.8008 -7446.8995 303.3754 -85.8844 13.7685 30136.6799 -85.8844 13.7685
ENERGY: 300000 2.7118 10.9339 12.8461 0.0000 -10543.2548 1357.9240 0.0000 0.0000 1719.3424 -7439.4966 295.0426 -9158.8390 -7440.0294 302.1486 -580.8079 -545.0751 30516.6805 -159.4010 -94.7609
ENERGY: 600000 0.8031 12.5340 10.7535 0.0000 -10748.0093 1480.9391 0.0000 0.0000 1720.2382 -7522.7415 295.1963 -9242.9797 -7458.3247 301.1663 147.9417 216.0931 30660.4817 -88.7537 -28.8527
ENERGY: 900000 4.7098 10.8126 9.6730 0.0000 -10645.2713 1457.4377 0.0000 0.0000 1848.4494 -7314.1888 317.1976 -9162.6381 -7444.8418 303.2085 600.3827 620.6130 30461.8245 26.9332 87.0920
ENERGY: 1200000 1.8527 9.5299 8.8028 0.0000 -10615.9407 1446.4384 0.0000 0.0000 1814.0143 -7335.3025 311.2885 -9149.3168 -7439.8988 303.1978 862.7833 873.0763 29676.2874 73.1249 122.1059
ENERGY: 1500000 1.4226 9.1421 9.1341 0.0000 -10583.3670 1391.2753 0.0000 0.0000 1794.6706 -7377.7222 307.9691 -9172.3928 -7435.1518 303.9820 -491.8068 -403.7629 30990.1436 27.5805 77.5783
TCL: Running FEP window  20: Lambda1 0.9500000000000003 Lambda2 1.0    [dLambda 0.04999999999999971]
TCL: Setting parameter firsttimestep to 0
TCL: Setting parameter alchLambda to 0.9500000000000003
Info: NONBONDED TABLE R-SQUARED SPACING: 0.0625
Info: NONBONDED TABLE SIZE: 705 POINTS
TCL: Setting parameter alchLambda2 to 1.0
Info: NONBONDED TABLE R-SQUARED SPACING: 0.0625
Info: NONBONDED TABLE SIZE: 705 POINTS
TCL: Running for 1500000 steps
ETITLE: TS BOND ANGLE DIHED IMPRP ELECT VDW BOUNDARY MISC KINETIC TOTAL TEMP POTENTIAL TOTALAVG TEMPAVG PRESSURE GPRESSURE VOLUME PRESSAVG GPRESSAVG
ENERGY: 0 1.4226 9.1421 9.1341 0.0000 -10585.1204 1392.4517 0.0000 0.0000 1793.7442 -7379.2257 307.8101 -9172.9699 -7379.2257 307.8101 -443.5792 -377.2384 30990.1436 -443.5792 -377.2384
ENERGY: 300000 2.8521 4.4375 12.5332 0.0000 -10651.4138 1374.2166 0.0000 0.0000 1803.4240 -7453.9503 309.4712 -9257.3743 -7457.0786 303.5598 -665.6819 -600.2206 30495.4101 -229.2807 -175.8140
ENERGY: 600000 3.5302 9.1319 10.2472 0.0000 -10683.8181 1413.4370 0.0000 0.0000 1787.5028 -7459.9689 306.7391 -9247.4717 -7470.4367 302.8124 337.3054 310.1516 29731.4297 -80.2432 -37.4923
ENERGY: 900000 1.2639 11.1515 12.3391 0.0000 -10834.9879 1531.0105 0.0000 0.0000 1753.1104 -7526.1125 300.8373 -9279.2229 -7486.8410 301.7232 761.2801 803.6331 29965.0438 -110.1628 -70.2272
ENERGY: 1200000 4.8739 8.0471 7.0834 0.0000 -10593.0886 1348.6604 0.0000 0.0000 1782.3021 -7442.1217 305.8466 -9224.4238 -7477.8821 301.7091 -639.6413 -622.2807 30633.5917 -195.3746 -159.2977
ENERGY: 1500000 2.4327 11.5812 8.9762 0.0000 -10628.9203 1394.5520 0.0000 0.0000 1722.2797 -7489.0985 295.5467 -9211.3782 -7479.1248 301.1431 -182.2997 -46.6575 30206.1446 -174.1552 -123.5877
TCL: Exiting due to exit command.
