Info: SIMULATION PARAMETERS:
Info: TIMESTEP               2
Info: NUMBER OF STEPS        0
Info: STEPS PER CYCLE        10
Info: PERIODIC CELL BASIS 1  32.5476 0 0
Info: PERIODIC CELL BASIS 2  0 29.2299 0
Info: PERIODIC CELL BASIS 3  0 0 32.198
Info: PERIODIC CELL CENTER   0 0 0
Info: WRAPPING WATERS AROUND PERIODIC BOUNDARIES ON OUTPUT.
Info: WRAPPING ALL CLUSTERS AROUND PERIODIC BOUNDARIES ON OUTPUT.
Info: FIRST LDB TIMESTEP     50
Info: LAST LDB TIMESTEP     -1
Info: HOM BACKGROUND SCALING 1
Info: PME BACKGROUND SCALING 1
Info: MIN ATOMS PER PATCH    40
Info: EMPTY PATCH LOAD       40 ATOMS
Info: VELOCITY FILE          mobley_3573480_equil.vel
Info: CENTER OF MASS MOVING INITIALLY? NO
Info: DIELECTRIC             1
Info: EXCLUDE                SCALED ONE-FOUR
Info: 1-4 ELECTROSTATICS SCALED BY 0.833333
Info: MODIFIED 1-4 VDW PARAMETERS WILL BE USED
Info: DCD FILENAME           mobley_3573480_prod.dcd
Info: DCD FREQUENCY          100000
Info: DCD FIRST STEP         100000
Info: DCD FILE WILL CONTAIN UNIT CELL DATA
Info: XST FILENAME           mobley_3573480_prod.xst
Info: XST FREQUENCY          100000
Info: NO VELOCITY DCD OUTPUT
Info: NO FORCE DCD OUTPUT
Info: OUTPUT FILENAME        mobley_3573480_prod
Info: BINARY OUTPUT FILES WILL BE USED
Info: RESTART FILENAME       mobley_3573480_prod.restart
Info: RESTART FREQUENCY      100000
Info: BINARY RESTART FILES WILL BE USED
Info: CUTOFF                 9
Info: PAIRLIST DISTANCE      11
Info: PAIRLIST SHRINK RATE   0.01
Info: PAIRLIST GROW RATE     0.01
Info: PAIRLIST TRIGGER       0.3
Info: PAIRLISTS PER CYCLE    2
Info: PAIRLISTS ENABLED
Info: MARGIN                 2
Info: HYDROGEN GROUP CUTOFF  2.5
Info: PATCH DIMENSION        15.5
Info: ENERGY OUTPUT STEPS    100000
Info: ENERGY EVALUATION STEPS    100000
Info: OUTPUT ENERGY PRECISION 4
Info: CROSSTERM ENERGY INCLUDED IN DIHEDRAL
Info: TIMING OUTPUT STEPS    1000000
Info: PRESSURE OUTPUT STEPS  100000
Info: ALCHEMICAL FEP ON
Info: FEP CURRENT LAMBDA VALUE     1
Info: FEP COMPARISON LAMBDA VALUE  0.95
Info: FEP INTRA-ALCHEMICAL NON-BONDED INTERACTIONS WILL BE RETAINED
Info: FEP INTRA-ALCHEMICAL BONDED INTERACTIONS WILL BE RETAINED
Info: FEP VDW SHIFTING COEFFICIENT 5
Info: FEP ELEC. ACTIVE FOR ANNIHILATED PARTICLES BETWEEN LAMBDA = 0 AND LAMBDA = 0.5
Info: FEP ELEC. ACTIVE FOR EXNIHILATED PARTICLES BETWEEN LAMBDA = 0.5 AND LAMBDA = 1
Info: FEP VDW ACTIVE FOR ANNIHILATED PARTICLES BETWEEN LAMBDA = 0 AND LAMBDA = 1
Info: FEP VDW ACTIVE FOR EXNIHILATED PARTICLES BETWEEN LAMBDA = 0 AND LAMBDA = 1
Info: FEP BOND ACTIVE FOR ANNIHILATED PARTICLES BETWEEN LAMBDA = 1 AND LAMBDA = 1
Info: FEP BOND ACTIVE FOR EXNIHILATED PARTICLES BETWEEN LAMBDA = 0 AND LAMBDA = 0
Info: LANGEVIN DYNAMICS ACTIVE
Info: LANGEVIN TEMPERATURE   300
Info: LANGEVIN USING BBK INTEGRATOR
Info: LANGEVIN DAMPING COEFFICIENT IS 1 INVERSE PS
Info: LANGEVIN DYNAMICS APPLIED TO HYDROGENS
Info: LANGEVIN PISTON PRESSURE CONTROL ACTIVE
Info:        TARGET PRESSURE IS 1.01325 BAR
Info:     OSCILLATION PERIOD IS 50 FS
Info:             DECAY TIME IS 25 FS
Info:     PISTON TEMPERATURE IS 300 K
Info:       PRESSURE CONTROL IS GROUP-BASED
Info:    INITIAL STRAIN RATE IS 7.36013e-05 7.36013e-05 7.36013e-05
Info:       CELL FLUCTUATION IS ISOTROPIC
Info: PARTICLE MESH EWALD (PME) ACTIVE
Info: PME TOLERANCE               1e-06
Info: PME EWALD COEFFICIENT       0.348832
Info: PME INTERPOLATION ORDER     4
Info: PME GRID DIMENSIONS         36 32 36
Info: PME MAXIMUM GRID SPACING    1
Info: PME CALCULATION WILL BE PERFORMED ON GPU
Info: FULL ELECTROSTATIC EVALUATION FREQUENCY      2
Info: USING VERLET I (r-RESPA) MTS SCHEME.
Info: C1 SPLITTING OF LONG RANGE ELECTROSTATICS
Info: PLACING ATOMS IN PATCHES BY HYDROGEN GROUPS
Info: RIGID BONDS TO HYDROGEN : ALL
Info:         ERROR TOLERANCE : 1e-08
Info:          MAX ITERATIONS : 100
Info: RIGID WATER USING SETTLE ALGORITHM
Info: RANDOM NUMBER SEED     1743976737
Info: USE HYDROGEN BONDS?    NO
Info: Using AMBER format force field!
Info: AMBER PARM FILE        mobley_3573480.prmtop
Info: COORDINATE PDB         mobley_3573480.pdb
Info: Exclusions will be read from PARM file!
Info: SCNB (VDW SCALING)     2
Info: USING ARITHMETIC MEAN TO COMBINE L-J SIGMA PARAMETERS
Info: BINARY COORDINATES     mobley_3573480_equil.coor
Info: SUMMARY OF PARAMETERS:
Info: 6 BONDS
Info: 7 ANGLES
Info:   7 HARMONIC
Info:   0 COSINE-BASED
Info: 11 DIHEDRAL
Info: 0 IMPROPER
Info: 0 CROSSTERM
Info: 0 VDW
Info: 21 VDW_PAIRS
Info: 0 NBTHOLE_PAIRS
Info: To read alchdata from file: mobley_3573480.pdb
Info: To read alchflag data from column: 5
Info: STRUCTURE SUMMARY:
Info: 2968 ATOMS
Info: 2967 BONDS
Info: 39 ANGLES
Info: 63 DIHEDRALS
Info: 0 IMPROPERS
Info: 0 CROSSTERMS
Info: 3054 EXCLUSIONS
Info: 2960 RIGID BONDS
Info: ALCH: 0 ATOMS TO DISAPPEAR IN FINAL STATE
Info: ALCH: 22 ATOMS TO APPEAR IN FINAL STATE
Info: 5944 DEGREES OF FREEDOM
Info: 990 HYDROGEN GROUPS
Info: 4 ATOMS IN LARGEST HYDROGEN GROUP
Info: 990 MIGRATION GROUPS
Info: 4 ATOMS IN LARGEST MIGRATION GROUP
Info: TOTAL MASS = 17805.9 amu
Info: TOTAL CHARGE = 0.000100024 e
Info: MASS DENSITY = 0.965269 g/cm^3
Info: ATOM DENSITY = 0.0968923 atoms/A^3
Info: ADDED 0 IMPLICIT EXCLUSIONS
Info: NONBONDED TABLE R-SQUARED SPACING: 0.0625
Info: NONBONDED TABLE SIZE: 705 POINTS
Info: REMOVING COM VELOCITY 0.00478205 -0.214892 -0.0112711
Info: Use 3D box decompostion in PME FFT.
Info: Updated CUDA force table with 4096 elements.
Info: Updated CUDA LJ table with 6 x 6 elements.
Info: Found 25 unique exclusion lists needing 76 bytes
TCL: Running for 1500000 steps
ETITLE: TS BOND ANGLE DIHED IMPRP ELECT VDW BOUNDARY MISC KINETIC TOTAL TEMP POTENTIAL TOTALAVG TEMPAVG PRESSURE GPRESSURE VOLUME PRESSAVG GPRESSAVG
ENERGY: 0 3.1338 10.7586 6.0058 0.0000 -10741.7739 1428.0654 0.0000 0.0000 1772.2420 -7521.5682 300.0783 -9293.8102 -7521.5682 300.0783 -166.4373 -67.7176 30631.9421 -166.4373 -67.7176
ENERGY: 300000 2.2702 7.8291 4.6004 0.0000 -10748.0988 1481.1367 0.0000 0.0000 1771.0415 -7481.2209 299.8750 -9252.2623 -7507.3653 300.8001 218.2080 185.7518 31138.5465 26.3461 56.9598
ENERGY: 600000 1.4204 6.8126 5.5917 0.0000 -10662.2988 1383.1875 0.0000 0.0000 1807.7946 -7457.4919 306.0981 -9265.2865 -7497.2413 301.5179 -332.0506 -313.7143 30807.2828 -35.7746 15.1833
ENERGY: 900000 2.4704 8.2117 5.1959 0.0000 -10683.9118 1413.7101 0.0000 0.0000 1802.2298 -7452.0939 305.1559 -9254.3237 -7505.2735 301.5590 -105.7483 -24.2440 30696.4834 17.8222 76.3534
ENERGY: 1200000 1.7240 9.3701 5.0198 0.0000 -10751.8890 1431.7605 0.0000 0.0000 1840.8051 -7463.2095 311.6875 -9304.0146 -7503.1390 302.0080 170.9331 232.7209 30128.0753 97.7149 152.0289
ENERGY: 1500000 3.2186 11.2002 5.5248 0.0000 -10712.1930 1413.8415 0.0000 0.0000 1749.9769 -7528.4309 296.3084 -9278.4078 -7515.3969 301.2950 -237.9293 -169.0648 30547.8921 116.2709 172.0155
TCL: Running FEP window   2: Lambda1 0.95   Lambda2 0.8999999999999999 [dLambda -0.050000000000000044]
TCL: Setting parameter firsttimestep to 0
TCL: Setting parameter alchLambda to 0.95
Info: NONBONDED TABLE R-SQUARED SPACING: 0.0625
Info: NONBONDED TABLE SIZE: 705 POINTS
TCL: Setting parameter alchLambda2 to 0.8999999999999999
Info: NONBONDED TABLE R-SQUARED SPACING: 0.0625
Info: NONBONDED TABLE SIZE: 705 POINTS
TCL: Running for 1500000 steps
ETITLE: TS BOND ANGLE DIHED IMPRP ELECT VDW BOUNDARY MISC KINETIC TOTAL TEMP POTENTIAL TOTALAVG TEMPAVG PRESSURE GPRESSURE VOLUME PRESSAVG GPRESSAVG
ENERGY: 0 3.2186 11.2002 5.5248 0.0000 -10711.1281 1414.4063 0.0000 0.0000 1749.1109 -7527.6672 296.1617 -9276.7781 -7527.6672 296.1617 -264.5068 -171.9048 30547.8921 -264.5068 -171.9048
ENERGY: 300000 3.0105 7.9318 6.5158 0.0000 -10681.2657 1427.5830 0.0000 0.0000 1734.1505 -7502.0741 293.6286 -9236.2246 -7505.5157 297.5060 -33.1481 36.5319 30688.3001 -99.7392 -7.5530
ENERGY: 600000 4.7297 11.8045 8.0244 0.0000 -10745.1781 1429.4915 0.0000 0.0000 1791.1897 -7499.9384 303.2866 -9291.1281 -7502.6178 299.6636 -35.4997 -12.9169 30502.2959 -103.6983 -17.5826
ENERGY: 900000 3.0951 8.0590 5.9665 0.0000 -10589.1376 1329.7455 0.0000 0.0000 1748.3179 -7493.9537 296.0274 -9242.2716 -7511.8723 300.3829 -668.1558 -647.1809 30689.0945 -125.5483 -60.8856
ENERGY: 1200000 0.5408 9.6682 5.6629 0.0000 -10559.2976 1355.2531 0.0000 0.0000 1774.5590 -7413.6135 300.4706 -9188.1725 -7505.2707 299.6567 -469.6772 -375.7111 30854.9675 -262.4521 -195.3243
ENERGY: 1500000 1.3217 12.4752 5.9341 0.0000 -10745.0809 1459.9144 0.0000 0.0000 1808.4261 -7457.0094 306.2051 -9265.4355 -7501.5432 300.4238 503.3835 550.0687 30075.2802 -247.3957 -188.3767
TCL: Running FEP window   3: Lambda1 0.8999999999999999 Lambda2 0.8499999999999999 [dLambda -0.050000000000000044]
TCL: Setting parameter firsttimestep to 0
TCL: Setting parameter alchLambda to 0.8999999999999999
Info: NONBONDED TABLE R-SQUARED SPACING: 0.0625
Info: NONBONDED TABLE SIZE: 705 POINTS
TCL: Setting parameter alchLambda2 to 0.8499999999999999
Info: NONBONDED TABLE R-SQUARED SPACING: 0.0625
Info: NONBONDED TABLE SIZE: 705 POINTS
TCL: Running for 1500000 steps
ETITLE: TS BOND ANGLE DIHED IMPRP ELECT VDW BOUNDARY MISC KINETIC TOTAL TEMP POTENTIAL TOTALAVG TEMPAVG PRESSURE GPRESSURE VOLUME PRESSAVG GPRESSAVG
ENERGY: 0 1.3217 12.4752 5.9341 0.0000 -10743.7641 1459.1761 0.0000 0.0000 1807.5466 -7457.3104 306.0561 -9264.8569 -7457.3104 306.0561 439.2935 528.5158 30075.2802 439.2935 528.5158
ENERGY: 300000 2.1924 10.5662 6.9034 0.0000 -10714.5216 1430.7075 0.0000 0.0000 1789.2291 -7474.9231 302.9546 -9264.1522 -7452.8809 304.9621 121.8171 186.8025 30329.9964 55.6781 119.4328
ENERGY: 600000 4.1410 9.3549 5.4540 0.0000 -10804.7100 1464.8682 0.0000 0.0000 1795.8819 -7525.0100 304.0810 -9320.8919 -7475.7790 304.3672 -201.4258 -145.5273 30879.4553 -217.8997 -158.4300
ENERGY: 900000 1.7882 8.8856 6.2217 0.0000 -10831.1021 1438.9803 0.0000 0.0000 1820.3006 -7554.9256 308.2157 -9375.2262 -7501.3495 303.7756 19.1288 40.5492 30213.0072 -63.3598 -13.2741
ENERGY: 1200000 2.6820 15.7211 4.8756 0.0000 -10732.6014 1354.9542 0.0000 0.0000 1819.2476 -7535.1208 308.0374 -9354.3684 -7496.9979 304.1054 -785.1514 -776.6513 30254.4465 -151.8623 -99.2398
ENERGY: 1500000 1.3229 9.3632 5.3361 0.0000 -10733.3653 1432.8853 0.0000 0.0000 1820.3320 -7464.1258 308.2210 -9284.4579 -7500.1725 302.8006 49.0026 25.4726 30810.5213 -165.9182 -120.5124
TCL: Running FEP window   4: Lambda1 0.8499999999999999 Lambda2 0.7999999999999998 [dLambda -0.050000000000000044]
TCL: Setting parameter firsttimestep to 0
TCL: Setting parameter alchLambda to 0.8499999999999999
Info: NONBONDED TABLE R-SQUARED SPACING: 0.0625
Info: NONBONDED TABLE SIZE: 705 POINTS
TCL: Setting parameter alchLambda2 to 0.7999999999999998
Info: NONBONDED TABLE R-SQUARED SPACING: 0.0625
Info: NONBONDED TABLE SIZE: 705 POINTS
TCL: Running for 1500000 steps
ETITLE: TS BOND ANGLE DIHED IMPRP ELECT VDW BOUNDARY MISC KINETIC TOTAL TEMP POTENTIAL TOTALAVG TEMPAVG PRESSURE GPRESSURE VOLUME PRESSAVG GPRESSAVG
ENERGY: 0 1.3229 9.3632 5.3361 0.0000 -10732.1520 1432.5883 0.0000 0.0000 1819.4869 -7464.0546 308.0779 -9283.5416 -7464.0546 308.0779 -60.9062 14.0110 30810.5213 -60.9062 14.0110
ENERGY: 300000 1.3063 10.2046 5.5125 0.0000 -10635.6499 1450.5102 0.0000 0.0000 1797.6133 -7370.5030 304.3742 -9168.1163 -7461.5047 303.5335 325.3767 343.1504 30940.6464 54.6126 125.4009
ENERGY: 600000 1.5145 12.3464 6.2242 0.0000 -10755.3097 1398.6288 0.0000 0.0000 1741.8307 -7594.7651 294.9290 -9336.5959 -7503.4909 299.8990 -350.1925 -288.1725 30233.2605 27.5376 99.0979
ENERGY: 900000 2.0603 7.4627 7.9198 0.0000 -10637.3264 1426.9252 0.0000 0.0000 1755.4774 -7437.4810 297.2397 -9192.9583 -7500.9182 299.2928 -21.4125 41.5054 31148.2196 67.1481 139.1613
ENERGY: 1200000 2.4812 8.8227 5.8600 0.0000 -10698.1052 1406.2254 0.0000 0.0000 1759.6177 -7515.0982 297.9408 -9274.7159 -7508.0574 299.5269 126.7125 152.5208 30279.4882 141.7948 211.6780
ENERGY: 1500000 2.9991 13.6238 5.8781 0.0000 -10771.8533 1392.4474 0.0000 0.0000 1777.1168 -7579.7881 300.9037 -9356.9049 -7512.5020 299.6314 -439.7135 -360.9830 30099.7026 23.3333 90.4193
TCL: Running FEP window   5: Lambda1 0.7999999999999998 Lambda2 0.7499999999999998 [dLambda -0.050000000000000044]
TCL: Setting parameter firsttimestep to 0
TCL: Setting parameter alchLambda to 0.7999999999999998
Info: NONBONDED TABLE R-SQUARED SPACING: 0.0625
Info: NONBONDED TABLE SIZE: 705 POINTS
TCL: Setting parameter alchLambda2 to 0.7499999999999998
Info: NONBONDED TABLE R-SQUARED SPACING: 0.0625
Info: NONBONDED TABLE SIZE: 705 POINTS
TCL: Running for 1500000 steps
ETITLE: TS BOND ANGLE DIHED IMPRP ELECT VDW BOUNDARY MISC KINETIC TOTAL TEMP POTENTIAL TOTALAVG TEMPAVG PRESSURE GPRESSURE VOLUME PRESSAVG GPRESSAVG
ENERGY: 0 2.9991 13.6238 5.8781 0.0000 -10770.7240 1392.7080 0.0000 0.0000 1776.2381 -7579.2768 300.7549 -9355.5149 -7579.2768 300.7549 -438.9985 -369.1518 30099.7026 -438.9985 -369.1518
ENERGY: 300000 2.8214 10.7112 6.1078 0.0000 -10614.2775 1378.2274 0.0000 0.0000 1776.1008 -7440.3088 300.7317 -9216.4096 -7525.3418 298.1521 -212.1007 -88.7055 30266.4476 14.6258 103.8274
ENERGY: 600000 1.3849 11.3725 5.7660 0.0000 -10609.3766 1383.2881 0.0000 0.0000 1693.4936 -7514.0715 286.7445 -9207.5651 -7512.9653 297.8550 -452.7671 -352.9570 30581.9918 -92.3615 -10.8617
ENERGY: 900000 2.0791 14.4252 5.1702 0.0000 -10594.0312 1365.0453 0.0000 0.0000 1784.7358 -7422.5755 302.1938 -9207.3114 -7496.2397 297.5327 -496.5225 -490.9331 30962.5958 -127.2063 -58.5925
ENERGY: 1200000 2.4378 13.0529 6.4903 0.0000 -10755.6236 1417.5574 0.0000 0.0000 1706.3087 -7609.7765 288.9144 -9316.0852 -7509.9664 297.8475 -361.1385 -292.2385 30574.6469 -173.1156 -99.2123
ENERGY: 1500000 1.1037 11.6789 6.9970 0.0000 -10804.3943 1479.6831 0.0000 0.0000 1797.2730 -7507.6587 304.3166 -9304.9316 -7515.7143 298.7895 352.8803 361.2866 30418.2198 -135.5562 -66.2496
TCL: Running FEP window   6: Lambda1 0.7499999999999998 Lambda2 0.6999999999999997 [dLambda -0.050000000000000044]
TCL: Setting parameter firsttimestep to 0
TCL: Setting parameter alchLambda to 0.7499999999999998
Info: NONBONDED TABLE R-SQUARED SPACING: 0.0625
Info: NONBONDED TABLE SIZE: 705 POINTS
TCL: Setting parameter alchLambda2 to 0.6999999999999997
Info: NONBONDED TABLE R-SQUARED SPACING: 0.0625
Info: NONBONDED TABLE SIZE: 705 POINTS
TCL: Running for 1500000 steps
ETITLE: TS BOND ANGLE DIHED IMPRP ELECT VDW BOUNDARY MISC KINETIC TOTAL TEMP POTENTIAL TOTALAVG TEMPAVG PRESSURE GPRESSURE VOLUME PRESSAVG GPRESSAVG
ENERGY: 0 1.1037 11.6789 6.9970 0.0000 -10803.7160 1479.7924 0.0000 0.0000 1796.4040 -7507.7399 304.1695 -9304.1440 -7507.7399 304.1695 275.8808 348.1657 30418.2198 275.8808 348.1657
ENERGY: 300000 1.0627 11.3290 5.2898 0.0000 -10816.3534 1460.6686 0.0000 0.0000 1802.0693 -7535.9340 305.1287 -9338.0033 -7517.8903 302.0078 505.5803 542.4357 29828.6390 -44.9283 10.7712
ENERGY: 600000 2.6224 3.5324 7.0942 0.0000 -10872.2158 1470.7448 0.0000 0.0000 1754.3131 -7633.9089 297.0426 -9388.2220 -7540.1498 301.2819 -88.4846 24.5419 30141.2124 100.8154 167.4894
ENERGY: 900000 1.3489 10.6581 6.6120 0.0000 -10664.9843 1375.9062 0.0000 0.0000 1764.3540 -7506.1051 298.7427 -9270.4591 -7528.0904 301.7640 -394.2157 -281.6802 30294.6221 189.2183 254.1870
ENERGY: 1200000 1.1419 11.3600 5.7232 0.0000 -10817.3954 1526.6322 0.0000 0.0000 1704.7707 -7567.7674 288.6540 -9272.5381 -7523.4923 300.5753 515.5998 505.8268 30744.0382 155.8747 212.4269
ENERGY: 1500000 5.9004 11.3857 5.3182 0.0000 -10633.8492 1397.1138 0.0000 0.0000 1747.6391 -7466.4920 295.9125 -9214.1311 -7517.0329 300.0394 -100.6928 43.9714 30094.5194 133.4576 199.6071
TCL: Running FEP window   7: Lambda1 0.6999999999999997 Lambda2 0.6499999999999997 [dLambda -0.050000000000000044]
TCL: Setting parameter firsttimestep to 0
TCL: Setting parameter alchLambda to 0.6999999999999997
Info: NONBONDED TABLE R-SQUARED SPACING: 0.0625
Info: NONBONDED TABLE SIZE: 705 POINTS
TCL: Setting parameter alchLambda2 to 0.6499999999999997
Info: NONBONDED TABLE R-SQUARED SPACING: 0.0625
Info: NONBONDED TABLE SIZE: 705 POINTS
TCL: Running for 1500000 steps
ETITLE: TS BOND ANGLE DIHED IMPRP ELECT VDW BOUNDARY MISC KINETIC TOTAL TEMP POTENTIAL TOTALAVG TEMPAVG PRESSURE GPRESSURE VOLUME PRESSAVG GPRESSAVG
ENERGY: 0 5.9004 11.3857 5.3182 0.0000 -10633.7476 1397.4125 0.0000 0.0000 1746.7592 -7466.9715 295.7635 -9213.7307 -7466.9715 295.7635 -35.2038 35.7175 30094.5194 -35.2038 35.7175
ENERGY: 300000 2.8543 10.0676 5.1713 0.0000 -10771.3909 1436.1678 0.0000 0.0000 1786.4612 -7530.6686 302.4859 -9317.1298 -7503.9171 298.0811 132.5065 165.5016 30371.4405 -242.8057 -201.3099
ENERGY: 600000 7.9806 11.5632 9.7294 0.0000 -10601.0502 1420.8375 0.0000 0.0000 1767.3195 -7383.6200 299.2448 -9150.9395 -7491.8226 299.6908 89.4030 210.7328 30653.6789 -187.6810 -130.4299
ENERGY: 900000 2.3025 10.4293 5.7863 0.0000 -10787.9807 1513.9185 0.0000 0.0000 1771.0890 -7484.4552 299.8831 -9255.5442 -7491.4685 299.1817 767.2986 864.7397 29890.9457 -10.5255 48.4206
ENERGY: 1200000 0.5886 11.5130 5.4049 0.0000 -10705.8882 1396.3900 0.0000 0.0000 1738.9904 -7553.0013 294.4481 -9291.9917 -7501.1627 299.0169 -405.0484 -410.8116 30635.4350 -14.7831 36.6562
ENERGY: 1500000 1.5597 11.3092 7.3385 0.0000 -10780.1727 1535.1379 0.0000 0.0000 1793.8754 -7430.9518 303.7413 -9224.8272 -7501.3177 299.2044 623.6907 685.9481 30838.0891 44.0796 94.9396
TCL: Running FEP window   8: Lambda1 0.6499999999999997 Lambda2 0.5999999999999996 [dLambda -0.050000000000000044]
TCL: Setting parameter firsttimestep to 0
TCL: Setting parameter alchLambda to 0.6499999999999997
Info: NONBONDED TABLE R-SQUARED SPACING: 0.0625
Info: NONBONDED TABLE SIZE: 705 POINTS
TCL: Setting parameter alchLambda2 to 0.5999999999999996
Info: NONBONDED TABLE R-SQUARED SPACING: 0.0625
Info: NONBONDED TABLE SIZE: 705 POINTS
TCL: Running for 1500000 steps
ETITLE: TS BOND ANGLE DIHED IMPRP ELECT VDW BOUNDARY MISC KINETIC TOTAL TEMP POTENTIAL TOTALAVG TEMPAVG PRESSURE GPRESSURE VOLUME PRESSAVG GPRESSAVG
ENERGY: 0 1.5597 11.3092 7.3385 0.0000 -10779.8138 1535.2491 0.0000 0.0000 1793.0043 -7431.3528 303.5938 -9224.3571 -7431.3528 303.5938 605.5391 676.5572 30838.0891 605.5391 676.5572
ENERGY: 300000 1.6371 9.9438 5.9259 0.0000 -10756.1813 1463.2868 0.0000 0.0000 1787.0849 -7488.3029 302.5915 -9275.3878 -7474.1001 301.7219 204.3193 273.3539 30288.7040 329.9414 402.0521
ENERGY: 600000 3.5493 11.0425 5.8863 0.0000 -10840.1844 1459.7390 0.0000 0.0000 1807.4629 -7552.5044 306.0420 -9359.9672 -7478.5658 302.7334 139.7276 199.2335 30043.8187 154.8344 234.3864
ENERGY: 900000 2.8596 11.8269 6.0445 0.0000 -10554.3335 1365.4112 0.0000 0.0000 1796.7018 -7371.4896 304.2199 -9168.1914 -7473.6453 301.8869 -364.7802 -362.0246 30873.6442 54.0286 127.4372
ENERGY: 1200000 1.1200 11.2229 5.0738 0.0000 -10763.8903 1518.2077 0.0000 0.0000 1769.9627 -7458.3031 299.6924 -9228.2658 -7476.7007 301.1248 928.2543 991.1465 30152.9160 47.4778 120.2011
ENERGY: 1500000 0.7377 11.9025 7.4470 0.0000 -10709.5901 1403.7456 0.0000 0.0000 1789.7519 -7496.0053 303.0431 -9285.7572 -7477.5484 301.2706 -232.2193 -213.3648 30470.8448 -14.2733 54.4823
TCL: Running FEP window   9: Lambda1 0.5999999999999996 Lambda2 0.5499999999999996 [dLambda -0.050000000000000044]
TCL: Setting parameter firsttimestep to 0
TCL: Setting parameter alchLambda to 0.5999999999999996
Info: NONBONDED TABLE R-SQUARED SPACING: 0.0625
Info: NONBONDED TABLE SIZE: 705 POINTS
TCL: Setting parameter alchLambda2 to 0.5499999999999996
Info: NONBONDED TABLE R-SQUARED SPACING: 0.0625
Info: NONBONDED TABLE SIZE: 705 POINTS
TCL: Running for 1500000 steps
ETITLE: TS BOND ANGLE DIHED IMPRP ELECT VDW BOUNDARY MISC KINETIC TOTAL TEMP POTENTIAL TOTALAVG TEMPAVG PRESSURE GPRESSURE VOLUME PRESSAVG GPRESSAVG
ENERGY: 0 0.7377 11.9025 7.4470 0.0000 -10709.2489 1404.3113 0.0000 0.0000 1788.8955 -7495.9549 302.8981 -9284.8504 -7495.9549 302.8981 -297.0958 -216.0068 30470.8448 -297.0958 -216.0068
ENERGY: 300000 3.1079 8.6046 6.2033 0.0000 -10699.3886 1408.8134 0.0000 0.0000 1758.9960 -7513.6633 297.8355 -9272.6593 -7513.1723 297.5684 -113.0100 -103.2771 30363.4089 58.0007 131.6687
ENERGY: 600000 1.2425 10.8733 5.6927 0.0000 -10801.1925 1414.7115 0.0000 0.0000 1771.0715 -7597.6010 299.8801 -9368.6725 -7535.6123 297.6461 -565.9555 -462.5243 30777.2290 -127.6964 -36.7648
ENERGY: 900000 2.5923 9.9948 5.9141 0.0000 -10646.2363 1407.9998 0.0000 0.0000 1768.1004 -7451.6349 299.3771 -9219.7353 -7522.4373 298.1781 -423.5198 -316.8790 31161.5502 -50.3977 40.5896
ENERGY: 1200000 0.9323 6.6244 6.0349 0.0000 -10689.9692 1384.0579 0.0000 0.0000 1773.0803 -7519.2395 300.2203 -9292.3198 -7516.8779 299.1682 -727.8601 -782.4129 31203.1916 -41.5127 29.7100
ENERGY: 1500000 1.2889 9.6640 5.6287 0.0000 -10782.1359 1448.1905 0.0000 0.0000 1784.6546 -7532.7093 302.1800 -9317.3639 -7521.5691 299.2077 -28.3886 8.7243 30585.3363 52.0074 118.4072
TCL: Running FEP window  10: Lambda1 0.5499999999999996 Lambda2 0.4999999999999996 [dLambda -0.04999999999999999]
TCL: Setting parameter firsttimestep to 0
TCL: Setting parameter alchLambda to 0.5499999999999996
Info: NONBONDED TABLE R-SQUARED SPACING: 0.0625
Info: NONBONDED TABLE SIZE: 705 POINTS
TCL: Setting parameter alchLambda2 to 0.4999999999999996
Info: NONBONDED TABLE R-SQUARED SPACING: 0.0625
Info: NONBONDED TABLE SIZE: 705 POINTS
TCL: Running for 1500000 steps
ETITLE: TS BOND ANGLE DIHED IMPRP ELECT VDW BOUNDARY MISC KINETIC TOTAL TEMP POTENTIAL TOTALAVG TEMPAVG PRESSURE GPRESSURE VOLUME PRESSAVG GPRESSAVG
ENERGY: 0 1.2889 9.6640 5.6287 0.0000 -10782.4391 1448.3860 0.0000 0.0000 1783.7618 -7533.7099 302.0289 -9317.4716 -7533.7099 302.0289 -89.2491 -1.0784 30585.3363 -89.2491 -1.0784
ENERGY: 300000 2.3586 8.3617 5.2131 0.0000 -10733.8030 1432.5446 0.0000 0.0000 1760.7940 -7524.5310 298.1399 -9285.3250 -7506.8660 302.7330 -149.8197 -58.6762 30449.9657 197.9724 256.5836
ENERGY: 600000 1.8361 9.6647 7.3608 0.0000 -10677.1227 1392.9763 0.0000 0.0000 1806.4707 -7458.8141 305.8740 -9265.2848 -7498.5683 301.2033 -229.1988 -124.4985 30287.4482 -34.4460 39.8512
ENERGY: 900000 1.1351 6.5265 6.7214 0.0000 -10749.9564 1441.7762 0.0000 0.0000 1727.6846 -7566.1126 292.5338 -9293.7972 -7505.8090 300.1971 -312.2730 -200.8600 30583.5032 54.8380 133.9556
ENERGY: 1200000 2.3438 8.4479 6.7365 0.0000 -10753.1661 1399.4985 0.0000 0.0000 1771.9812 -7564.1583 300.0341 -9336.1395 -7513.0456 300.0672 -516.7315 -466.4221 30168.2289 -68.0977 2.1290
ENERGY: 1500000 4.5277 9.0146 6.1229 0.0000 -10679.7805 1400.0991 0.0000 0.0000 1825.5121 -7434.5041 309.0981 -9260.0162 -7495.8968 301.4338 -575.3745 -417.6638 30819.0451 -61.4880 12.6075
TCL: Running FEP window  11: Lambda1 0.4999999999999996 Lambda2 0.4499999999999996 [dLambda -0.04999999999999999]
TCL: Setting parameter firsttimestep to 0
TCL: Setting parameter alchLambda to 0.4999999999999996
Info: NONBONDED TABLE R-SQUARED SPACING: 0.0625
Info: NONBONDED TABLE SIZE: 705 POINTS
TCL: Setting parameter alchLambda2 to 0.4499999999999996
Info: NONBONDED TABLE R-SQUARED SPACING: 0.0625
Info: NONBONDED TABLE SIZE: 705 POINTS
TCL: Running for 1500000 steps
ETITLE: TS BOND ANGLE DIHED IMPRP ELECT VDW BOUNDARY MISC KINETIC TOTAL TEMP POTENTIAL TOTALAVG TEMPAVG PRESSURE GPRESSURE VOLUME PRESSAVG GPRESSAVG
ENERGY: 0 4.5277 9.0146 6.1229 0.0000 -10679.4668 1400.3081 0.0000 0.0000 1824.6165 -7434.8770 308.9464 -9259.4935 -7434.8770 308.9464 -500.2919 -425.0088 30819.0451 -500.2919 -425.0088
ENERGY: 300000 2.8975 6.6681 6.1381 0.0000 -10672.7167 1418.0548 0.0000 0.0000 1778.5719 -7460.3862 301.1501 -9238.9582 -7465.6765 301.6215 -125.1338 -54.3741 30646.0200 -122.6035 -61.0310
ENERGY: 600000 2.3988 10.0629 5.9543 0.0000 -10676.1016 1413.3657 0.0000 0.0000 1769.8114 -7474.5085 299.6668 -9244.3199 -7478.2636 301.5169 -260.9232 -189.2518 30540.6338 -184.9210 -115.2003
ENERGY: 900000 1.8236 12.9582 5.9641 0.0000 -10906.0320 1576.3291 0.0000 0.0000 1810.3051 -7498.6520 306.5232 -9308.9570 -7481.8256 301.5507 1107.3464 1149.9270 30306.4795 -132.6482 -63.1054
ENERGY: 1200000 1.5747 11.9103 6.8443 0.0000 -10790.7529 1464.8775 0.0000 0.0000 1767.1503 -7538.3959 299.2162 -9305.5462 -7493.4901 301.1858 23.3428 102.9297 30281.4098 -88.3827 -17.2270
ENERGY: 1500000 4.4393 6.0364 5.1585 0.0000 -10698.1881 1418.6099 0.0000 0.0000 1771.2629 -7492.6812 299.9125 -9263.9441 -7495.4010 301.3203 -238.3698 -103.7804 30506.6548 -121.1468 -44.4630
TCL: Running FEP window  12: Lambda1 0.4499999999999996 Lambda2 0.39999999999999963 [dLambda -0.04999999999999999]
TCL: Setting parameter firsttimestep to 0
TCL: Setting parameter alchLambda to 0.4499999999999996
Info: NONBONDED TABLE R-SQUARED SPACING: 0.0625
Info: NONBONDED TABLE SIZE: 705 POINTS
TCL: Setting parameter alchLambda2 to 0.39999999999999963
Info: NONBONDED TABLE R-SQUARED SPACING: 0.0625
Info: NONBONDED TABLE SIZE: 705 POINTS
TCL: Running for 1500000 steps
ETITLE: TS BOND ANGLE DIHED IMPRP ELECT VDW BOUNDARY MISC KINETIC TOTAL TEMP POTENTIAL TOTALAVG TEMPAVG PRESSURE GPRESSURE VOLUME PRESSAVG GPRESSAVG
ENERGY: 0 4.4393 6.0364 5.1585 0.0000 -10698.1858 1419.0321 0.0000 0.0000 1770.3735 -7493.1461 299.7619 -9263.5195 -7493.1461 299.7619 -204.8095 -106.6915 30506.6548 -204.8095 -106.6915
ENERGY: 300000 3.2712 9.0713 6.1299 0.0000 -10761.3867 1476.7093 0.0000 0.0000 1730.6312 -7535.5738 293.0327 -9266.2050 -7453.8905 301.5463 80.7240 131.8956 30607.6125 82.7891 127.1482
ENERGY: 600000 1.1755 8.7472 6.8511 0.0000 -10580.4900 1360.6967 0.0000 0.0000 1773.5569 -7429.4626 300.3010 -9203.0195 -7481.6001 298.9487 -336.1942 -304.0178 30487.1801 -200.0193 -151.3255
ENERGY: 900000 1.4697 8.8478 5.4586 0.0000 -10671.3466 1461.2683 0.0000 0.0000 1738.5943 -7455.7079 294.3810 -9194.3022 -7501.7182 298.1261 349.5781 384.7476 30465.3479 -75.1756 -27.6890
ENERGY: 1200000 0.8880 10.3521 6.2806 0.0000 -10806.7211 1438.5505 0.0000 0.0000 1792.1805 -7558.4694 303.4543 -9350.6499 -7497.1698 299.6118 -189.7037 -110.1823 30347.7381 -54.7142 -2.8467
ENERGY: 1500000 0.7793 10.8579 5.9421 0.0000 -10600.1064 1346.7643 0.0000 0.0000 1769.5648 -7466.1979 299.6250 -9235.7627 -7496.3285 299.6759 -699.8225 -625.6998 30666.5983 -85.4729 -32.0771
TCL: Running FEP window  13: Lambda1 0.39999999999999963 Lambda2 0.34999999999999964 [dLambda -0.04999999999999999]
TCL: Setting parameter firsttimestep to 0
TCL: Setting parameter alchLambda to 0.39999999999999963
Info: NONBONDED TABLE R-SQUARED SPACING: 0.0625
Info: NONBONDED TABLE SIZE: 705 POINTS
TCL: Setting parameter alchLambda2 to 0.34999999999999964
Info: NONBONDED TABLE R-SQUARED SPACING: 0.0625
Info: NONBONDED TABLE SIZE: 705 POINTS
TCL: Running for 1500000 steps
ETITLE: TS BOND ANGLE DIHED IMPRP ELECT VDW BOUNDARY MISC KINETIC TOTAL TEMP POTENTIAL TOTALAVG TEMPAVG PRESSURE GPRESSURE VOLUME PRESSAVG GPRESSAVG
ENERGY: 0 0.7793 10.8579 5.9421 0.0000 -10600.1084 1347.1948 0.0000 0.0000 1768.7195 -7466.6147 299.4819 -9235.3343 -7466.6147 299.4819 -692.5756 -629.0151 30666.5983 -692.5756 -629.0151
ENERGY: 300000 0.8400 5.7003 6.5839 0.0000 -10772.8224 1481.8827 0.0000 0.0000 1783.0819 -7494.7336 301.9137 -9277.8155 -7520.5624 297.9220 181.8707 289.8721 30832.6953 30.3383 124.1013
ENERGY: 600000 1.5535 9.8296 6.0413 0.0000 -10623.6438 1354.7775 0.0000 0.0000 1832.2780 -7419.1639 310.2437 -9251.4418 -7495.8266 299.4739 -767.7960 -759.8050 30807.9402 -22.7532 53.1796
ENERGY: 900000 1.2960 9.2760 5.7493 0.0000 -10793.1244 1476.8986 0.0000 0.0000 1795.4714 -7504.4330 304.0116 -9299.9044 -7497.9630 300.0830 380.1038 412.6731 30158.5778 123.8068 186.8847
ENERGY: 1200000 2.1502 14.4526 6.9656 0.0000 -10713.8191 1450.8232 0.0000 0.0000 1750.7498 -7488.6777 296.4392 -9239.4275 -7502.4321 298.7071 39.9956 117.4059 30429.3864 55.4104 121.7873
ENERGY: 1500000 0.7188 6.2419 4.9220 0.0000 -10707.4594 1469.7256 0.0000 0.0000 1762.2101 -7463.6409 298.3797 -9225.8511 -7495.3688 298.8441 61.6121 157.5252 31065.0215 24.6558 89.2970
TCL: Running FEP window  14: Lambda1 0.34999999999999964 Lambda2 0.29999999999999966 [dLambda -0.04999999999999999]
TCL: Setting parameter firsttimestep to 0
TCL: Setting parameter alchLambda to 0.34999999999999964
Info: NONBONDED TABLE R-SQUARED SPACING: 0.0625
Info: NONBONDED TABLE SIZE: 705 POINTS
TCL: Setting parameter alchLambda2 to 0.29999999999999966
Info: NONBONDED TABLE R-SQUARED SPACING: 0.0625
Info: NONBONDED TABLE SIZE: 705 POINTS
TCL: Running for 1500000 steps
ETITLE: TS BOND ANGLE DIHED IMPRP ELECT VDW BOUNDARY MISC KINETIC TOTAL TEMP POTENTIAL TOTALAVG TEMPAVG PRESSURE GPRESSURE VOLUME PRESSAVG GPRESSAVG
ENERGY: 0 0.7188 6.2419 4.9220 0.0000 -10707.4616 1469.8427 0.0000 0.0000 1761.3538 -7464.3823 298.2347 -9225.7362 -7464.3823 298.2347 66.4677 153.5673 31065.0215 66.4677 153.5673
ENERGY: 300000 3.1884 13.4429 5.0348 0.0000 -10609.8004 1402.1418 0.0000 0.0000 1716.1069 -7469.8856 290.5734 -9185.9925 -7484.5318 298.4106 -228.9898 -157.2499 30638.6677 -216.8870 -164.8247
ENERGY: 600000 2.4500 10.2926 6.1051 0.0000 -10848.6188 1483.5132 0.0000 0.0000 1789.6542 -7556.6038 303.0266 -9346.2580 -7505.5109 298.8803 48.8332 105.0652 30353.7381 -248.0956 -197.3141
ENERGY: 900000 3.8412 8.4157 5.1428 0.0000 -10720.6365 1449.0966 0.0000 0.0000 1858.4908 -7395.6495 314.6821 -9254.1403 -7489.6058 300.4589 -17.8138 -18.8908 30961.8776 -229.7599 -186.9609
ENERGY: 1200000 0.8275 9.5936 5.3340 0.0000 -10810.4842 1494.1657 0.0000 0.0000 1736.6145 -7563.9489 294.0458 -9300.5634 -7500.9670 300.2816 207.7916 201.8859 30625.9645 -3.3229 42.1258
ENERGY: 1500000 3.5711 10.2313 7.8957 0.0000 -10709.5671 1404.9460 0.0000 0.0000 1803.6262 -7479.2968 305.3923 -9282.9230 -7494.4945 301.4489 -420.0045 -298.7687 30520.3942 -8.7146 40.5203
TCL: Running FEP window  15: Lambda1 0.29999999999999966 Lambda2 0.24999999999999967 [dLambda -0.04999999999999999]
TCL: Setting parameter firsttimestep to 0
TCL: Setting parameter alchLambda to 0.29999999999999966
Info: NONBONDED TABLE R-SQUARED SPACING: 0.0625
Info: NONBONDED TABLE SIZE: 705 POINTS
TCL: Setting parameter alchLambda2 to 0.24999999999999967
Info: NONBONDED TABLE R-SQUARED SPACING: 0.0625
Info: NONBONDED TABLE SIZE: 705 POINTS
TCL: Running for 1500000 steps
ETITLE: TS BOND ANGLE DIHED IMPRP ELECT VDW BOUNDARY MISC KINETIC TOTAL TEMP POTENTIAL TOTALAVG TEMPAVG PRESSURE GPRESSURE VOLUME PRESSAVG GPRESSAVG
ENERGY: 0 3.5711 10.2313 7.8957 0.0000 -10709.5675 1405.4920 0.0000 0.0000 1802.7580 -7479.6195 305.2453 -9282.3774 -7479.6195 305.2453 -394.6459 -299.6789 30520.3942 -394.6459 -299.6789
ENERGY: 300000 2.4034 10.5925 5.8646 0.0000 -10722.3445 1448.1696 0.0000 0.0000 1761.3779 -7493.9365 298.2388 -9255.3144 -7475.2191 299.9994 177.4795 288.8736 30299.4426 -97.2342 13.0800
ENERGY: 600000 3.6027 5.9689 6.0016 0.0000 -10761.8884 1437.1578 0.0000 0.0000 1807.1680 -7501.9894 305.9920 -9309.1574 -7509.3324 299.4729 -146.9057 -140.1228 30575.2115 -174.9658 -91.1044
ENERGY: 900000 2.4291 7.1258 7.1040 0.0000 -10667.8131 1435.9397 0.0000 0.0000 1799.1059 -7416.1087 304.6269 -9215.2145 -7487.1306 301.0573 113.0230 182.7987 30396.6479 -81.4498 -10.5503
ENERGY: 1200000 2.5886 11.4584 6.4308 0.0000 -10598.3508 1304.4629 0.0000 0.0000 1757.6457 -7515.7644 297.6068 -9273.4101 -7494.8266 299.7331 -1246.7254 -1171.8068 30539.8305 -216.4946 -148.4148
ENERGY: 1500000 1.8654 7.4384 5.7367 0.0000 -10742.2105 1426.9307 0.0000 0.0000 1799.3752 -7500.8642 304.6725 -9300.2394 -7497.3422 300.3006 -37.4150 8.4118 30171.7635 -199.7070 -133.2275
TCL: Running FEP window  16: Lambda1 0.24999999999999967 Lambda2 0.19999999999999968 [dLambda -0.04999999999999999]
TCL: Setting parameter firsttimestep to 0
TCL: Setting parameter alchLambda to 0.24999999999999967
Info: NONBONDED TABLE R-SQUARED SPACING: 0.0625
Info: NONBONDED TABLE SIZE: 705 POINTS
TCL: Setting parameter alchLambda2 to 0.19999999999999968
Info: NONBONDED TABLE R-SQUARED SPACING: 0.0625
Info: NONBONDED TABLE SIZE: 705 POINTS
TCL: Running for 1500000 steps
ETITLE: TS BOND ANGLE DIHED IMPRP ELECT VDW BOUNDARY MISC KINETIC TOTAL TEMP POTENTIAL TOTALAVG TEMPAVG PRESSURE GPRESSURE VOLUME PRESSAVG GPRESSAVG
ENERGY: 0 1.8654 7.4384 5.7367 0.0000 -10742.2122 1427.2728 0.0000 0.0000 1798.4733 -7501.4257 304.5198 -9299.8990 -7501.4257 304.5198 -88.4314 5.3144 30171.7635 -88.4314 5.3144
ENERGY: 300000 2.8992 10.4523 7.3675 0.0000 -10700.2437 1483.1309 0.0000 0.0000 1789.6586 -7406.7353 303.0273 -9196.3939 -7495.7072 302.1413 465.3738 566.8078 30534.1971 -115.3457 -56.0333
ENERGY: 600000 2.5608 9.8861 5.3419 0.0000 -10688.8175 1414.7966 0.0000 0.0000 1780.5847 -7475.6474 301.4909 -9256.2321 -7496.2566 300.1566 -169.7591 -111.1228 30520.6216 -225.1329 -160.3799
ENERGY: 900000 3.3514 7.6005 7.2215 0.0000 -10515.3331 1317.4493 0.0000 0.0000 1806.9989 -7372.7115 305.9634 -9179.7103 -7489.9891 299.3774 -886.0857 -805.2559 31169.7733 -254.5647 -190.1399
ENERGY: 1200000 3.0875 12.2354 7.1092 0.0000 -10876.6921 1519.6905 0.0000 0.0000 1752.0228 -7582.5466 296.6548 -9334.5694 -7493.0254 300.0176 95.5128 157.7428 30469.6560 -195.3032 -132.8196
ENERGY: 1500000 2.6026 8.4102 7.9531 0.0000 -10671.7757 1417.3726 0.0000 0.0000 1700.0933 -7535.3440 287.8620 -9235.4373 -7492.5116 299.4696 -195.4328 -176.3512 30424.5357 -156.4303 -96.2810
TCL: Running FEP window  17: Lambda1 0.19999999999999968 Lambda2 0.1499999999999997 [dLambda -0.04999999999999999]
TCL: Setting parameter firsttimestep to 0
TCL: Setting parameter alchLambda to 0.19999999999999968
Info: NONBONDED TABLE R-SQUARED SPACING: 0.0625
Info: NONBONDED TABLE SIZE: 705 POINTS
TCL: Setting parameter alchLambda2 to 0.1499999999999997
Info: NONBONDED TABLE R-SQUARED SPACING: 0.0625
Info: NONBONDED TABLE SIZE: 705 POINTS
TCL: Running for 1500000 steps
ETITLE: TS BOND ANGLE DIHED IMPRP ELECT VDW BOUNDARY MISC KINETIC TOTAL TEMP POTENTIAL TOTALAVG TEMPAVG PRESSURE GPRESSURE VOLUME PRESSAVG GPRESSAVG
ENERGY: 0 2.6026 8.4102 7.9530 0.0000 -10671.7748 1417.8488 0.0000 0.0000 1699.1968 -7535.7634 287.7102 -9234.9602 -7535.7634 287.7102 -255.9225 -176.8372 30424.5357 -255.9225 -176.8372
ENERGY: 300000 3.2441 6.6114 5.0364 0.0000 -10656.0673 1422.3653 0.0000 0.0000 1752.7442 -7466.0659 296.7769 -9218.8101 -7511.1762 296.5236 5.7324 36.0247 30541.3665 -276.5672 -227.5661
ENERGY: 600000 2.3377 10.0621 7.8690 0.0000 -10786.0629 1536.6187 0.0000 0.0000 1771.5566 -7457.6189 299.9623 -9229.1755 -7490.3477 298.3462 681.1738 695.3207 30507.9910 -52.7678 3.6042
ENERGY: 900000 4.1366 7.5417 7.4388 0.0000 -10798.3964 1520.4120 0.0000 0.0000 1742.9599 -7515.9075 295.1202 -9258.8673 -7484.0963 299.6220 800.1747 829.6687 30169.5621 74.0071 128.9097
ENERGY: 1200000 0.6530 11.8424 7.2549 0.0000 -10725.4634 1431.1248 0.0000 0.0000 1730.8940 -7543.6943 293.0772 -9274.5883 -7492.2867 298.6924 -155.1766 -72.4397 30525.6415 10.8823 68.9717
ENERGY: 1500000 2.0455 7.6049 4.5475 0.0000 -10724.9254 1436.5850 0.0000 0.0000 1772.1378 -7502.0048 300.0607 -9274.1425 -7494.1566 298.8566 2.7565 24.5232 30546.4803 59.1901 113.5735
TCL: Running FEP window  18: Lambda1 0.1499999999999997 Lambda2 0.09999999999999969 [dLambda -0.05 ]
TCL: Setting parameter firsttimestep to 0
TCL: Setting parameter alchLambda to 0.1499999999999997
Info: NONBONDED TABLE R-SQUARED SPACING: 0.0625
Info: NONBONDED TABLE SIZE: 705 POINTS
TCL: Setting parameter alchLambda2 to 0.09999999999999969
Info: NONBONDED TABLE R-SQUARED SPACING: 0.0625
Info: NONBONDED TABLE SIZE: 705 POINTS
TCL: Running for 1500000 steps
ETITLE: TS BOND ANGLE DIHED IMPRP ELECT VDW BOUNDARY MISC KINETIC TOTAL TEMP POTENTIAL TOTALAVG TEMPAVG PRESSURE GPRESSURE VOLUME PRESSAVG GPRESSAVG
ENERGY: 0 2.0455 7.6049 4.5475 0.0000 -10724.9259 1436.2038 0.0000 0.0000 1771.2408 -7503.2834 299.9088 -9274.5242 -7503.2834 299.9088 -73.0260 19.8278 30546.4803 -73.0260 19.8278
ENERGY: 300000 1.5550 11.2977 6.9381 0.0000 -10779.4795 1500.5508 0.0000 0.0000 1768.1975 -7490.9405 299.3935 -9259.1380 -7508.9103 298.6324 590.5377 658.4603 30199.7427 -146.2115 -75.3289
ENERGY: 600000 1.5430 11.1979 5.4933 0.0000 -10535.3030 1370.2083 0.0000 0.0000 1769.3279 -7377.5327 299.5849 -9146.8606 -7484.0847 299.1929 -606.8255 -461.9866 30984.7257 -139.5169 -66.8432
ENERGY: 900000 2.2076 11.7925 6.3654 0.0000 -10858.8402 1500.8048 0.0000 0.0000 1769.3328 -7568.3370 299.5857 -9337.6698 -7479.2446 299.9859 165.1758 219.1928 30468.1587 28.2424 87.4963
ENERGY: 1200000 1.4790 9.9390 5.0978 0.0000 -10763.4061 1457.6136 0.0000 0.0000 1717.3026 -7571.9740 290.7759 -9289.2766 -7499.1986 298.9669 242.3867 322.4450 29910.5997 5.9401 67.9647
ENERGY: 1500000 2.7536 7.6004 6.1177 0.0000 -10696.2304 1448.0939 0.0000 0.0000 1769.6943 -7461.9705 299.6469 -9231.6648 -7492.4118 299.6957 333.3432 388.6129 30067.7955 77.9748 141.3312
TCL: Running FEP window  19: Lambda1 0.09999999999999969 Lambda2 0.049999999999999684 [dLambda -0.05 ]
TCL: Setting parameter firsttimestep to 0
TCL: Setting parameter alchLambda to 0.09999999999999969
Info: NONBONDED TABLE R-SQUARED SPACING: 0.0625
Info: NONBONDED TABLE SIZE: 705 POINTS
TCL: Setting parameter alchLambda2 to 0.049999999999999684
Info: NONBONDED TABLE R-SQUARED SPACING: 0.0625
Info: NONBONDED TABLE SIZE: 705 POINTS
TCL: Running for 1500000 steps
ETITLE: TS BOND ANGLE DIHED IMPRP ELECT VDW BOUNDARY MISC KINETIC TOTAL TEMP POTENTIAL TOTALAVG TEMPAVG PRESSURE GPRESSURE VOLUME PRESSAVG GPRESSAVG
ENERGY: 0 2.7536 7.6004 6.1177 0.0000 -10696.2297 1448.3552 0.0000 0.0000 1768.7972 -7462.6056 299.4950 -9231.4029 -7462.6056 299.4950 303.0453 388.8420 30067.7955 303.0453 388.8420
ENERGY: 300000 1.4929 4.9867 6.0764 0.0000 -10753.2394 1416.3645 0.0000 0.0000 1741.8946 -7582.4243 294.9398 -9324.3188 -7491.3984 300.1085 -499.3400 -444.7572 30561.4042 -102.5690 -49.0476
ENERGY: 600000 3.0005 14.2542 5.9663 0.0000 -10742.6952 1425.1529 0.0000 0.0000 1754.5919 -7539.7293 297.0898 -9294.3212 -7505.2803 300.0084 -248.3565 -95.2237 30366.8868 -157.2811 -96.3276
ENERGY: 900000 2.3826 7.6887 7.3346 0.0000 -10597.4280 1354.6766 0.0000 0.0000 1793.0715 -7432.2741 303.6052 -9225.3456 -7500.4958 300.8726 -342.5460 -319.3358 30170.9337 -102.8439 -46.0312
ENERGY: 1200000 1.5060 13.5775 7.8833 0.0000 -10607.5874 1355.9029 0.0000 0.0000 1783.2843 -7445.4334 301.9480 -9228.7177 -7495.0488 300.6808 -580.7718 -435.6677 30308.8618 -232.4794 -171.7202
ENERGY: 1500000 1.1132 8.4269 7.1301 0.0000 -10661.2932 1358.3738 0.0000 0.0000 1800.5050 -7485.7442 304.8638 -9286.2491 -7503.1264 300.2888 -701.3463 -588.4868 30499.7124 -262.2768 -200.2777
TCL: Running FEP window  20: Lambda1 0.049999999999999684 Lambda2 0.0    [dLambda -0.049999999999999684]
TCL: Setting parameter firsttimestep to 0
TCL: Setting parameter alchLambda to 0.049999999999999684
Info: NONBONDED TABLE R-SQUARED SPACING: 0.0625
Info: NONBONDED TABLE SIZE: 705 POINTS
TCL: Setting parameter alchLambda2 to 0.0
Info: NONBONDED TABLE R-SQUARED SPACING: 0.0625
Info: NONBONDED TABLE SIZE: 705 POINTS
TCL: Running for 1500000 steps
ETITLE: TS BOND ANGLE DIHED IMPRP ELECT VDW BOUNDARY MISC KINETIC TOTAL TEMP POTENTIAL TOTALAVG TEMPAVG PRESSURE GPRESSURE VOLUME PRESSAVG GPRESSAVG
ENERGY: 0 1.1132 8.4269 7.1301 0.0000 -10661.2936 1357.2176 0.0000 0.0000 1799.6431 -7487.7626 304.7179 -9287.4057 -7487.7626 304.7179 -681.8981 -594.3456 30499.7124 -681.8981 -594.3456
ENERGY: 300000 2.3527 6.9704 5.4527 0.0000 -10607.4837 1415.8657 0.0000 0.0000 1785.5221 -7391.3201 302.3269 -9176.8422 -7441.9209 304.2975 -125.4279 -58.9766 30606.3545 -97.3945 -40.3299
ENERGY: 600000 0.9031 8.2311 8.7696 0.0000 -10720.0232 1489.2245 0.0000 0.0000 1773.5981 -7439.2968 300.3079 -9212.8949 -7459.8067 302.1734 266.8839 367.5452 30684.3097 -74.3714 -12.4125
ENERGY: 900000 2.1890 10.1347 4.9311 0.0000 -10739.7491 1466.4583 0.0000 0.0000 1819.0576 -7436.9784 308.0052 -9256.0360 -7451.1648 304.2480 9.9394 46.3597 30650.0343 -73.6120 -13.8475
ENERGY: 1200000 1.1516 16.2434 4.7924 0.0000 -10850.7063 1473.9913 0.0000 0.0000 1782.3572 -7572.1703 301.7910 -9354.5276 -7468.9300 303.6494 -57.3720 37.0075 30116.5731 53.2703 116.5254
ENERGY: 1500000 3.2605 12.2400 5.3941 0.0000 -10671.2735 1461.9587 0.0000 0.0000 1833.5185 -7354.9017 310.4537 -9188.4202 -7482.3621 302.8270 371.9032 366.2790 30607.7729 59.9621 122.5490
TCL: Exiting due to exit command.
