Info: SIMULATION PARAMETERS:
Info: TIMESTEP               2
Info: NUMBER OF STEPS        0
Info: STEPS PER CYCLE        10
Info: PERIODIC CELL BASIS 1  34.6773 0 0
Info: PERIODIC CELL BASIS 2  0 29.2125 0
Info: PERIODIC CELL BASIS 3  0 0 29.174
Info: PERIODIC CELL CENTER   0 0 0
Info: WRAPPING WATERS AROUND PERIODIC BOUNDARIES ON OUTPUT.
Info: WRAPPING ALL CLUSTERS AROUND PERIODIC BOUNDARIES ON OUTPUT.
Info: FIRST LDB TIMESTEP     50
Info: LAST LDB TIMESTEP     -1
Info: HOM BACKGROUND SCALING 1
Info: PME BACKGROUND SCALING 1
Info: MIN ATOMS PER PATCH    40
Info: EMPTY PATCH LOAD       40 ATOMS
Info: VELOCITY FILE          mobley_7859387_equil.vel
Info: CENTER OF MASS MOVING INITIALLY? NO
Info: DIELECTRIC             1
Info: EXCLUDE                SCALED ONE-FOUR
Info: 1-4 ELECTROSTATICS SCALED BY 0.833333
Info: MODIFIED 1-4 VDW PARAMETERS WILL BE USED
Info: DCD FILENAME           mobley_7859387_prod.dcd
Info: DCD FREQUENCY          100000
Info: DCD FIRST STEP         100000
Info: DCD FILE WILL CONTAIN UNIT CELL DATA
Info: XST FILENAME           mobley_7859387_prod.xst
Info: XST FREQUENCY          100000
Info: NO VELOCITY DCD OUTPUT
Info: NO FORCE DCD OUTPUT
Info: OUTPUT FILENAME        mobley_7859387_prod
Info: BINARY OUTPUT FILES WILL BE USED
Info: RESTART FILENAME       mobley_7859387_prod.restart
Info: RESTART FREQUENCY      100000
Info: BINARY RESTART FILES WILL BE USED
Info: CUTOFF                 9
Info: PAIRLIST DISTANCE      11
Info: PAIRLIST SHRINK RATE   0.01
Info: PAIRLIST GROW RATE     0.01
Info: PAIRLIST TRIGGER       0.3
Info: PAIRLISTS PER CYCLE    2
Info: PAIRLISTS ENABLED
Info: MARGIN                 2
Info: HYDROGEN GROUP CUTOFF  2.5
Info: PATCH DIMENSION        15.5
Info: ENERGY OUTPUT STEPS    100000
Info: ENERGY EVALUATION STEPS    100000
Info: OUTPUT ENERGY PRECISION 4
Info: CROSSTERM ENERGY INCLUDED IN DIHEDRAL
Info: TIMING OUTPUT STEPS    1000000
Info: PRESSURE OUTPUT STEPS  100000
Info: ALCHEMICAL FEP ON
Info: FEP CURRENT LAMBDA VALUE     1
Info: FEP COMPARISON LAMBDA VALUE  0.95
Info: FEP INTRA-ALCHEMICAL NON-BONDED INTERACTIONS WILL BE RETAINED
Info: FEP INTRA-ALCHEMICAL BONDED INTERACTIONS WILL BE RETAINED
Info: FEP VDW SHIFTING COEFFICIENT 5
Info: FEP ELEC. ACTIVE FOR ANNIHILATED PARTICLES BETWEEN LAMBDA = 0 AND LAMBDA = 0.5
Info: FEP ELEC. ACTIVE FOR EXNIHILATED PARTICLES BETWEEN LAMBDA = 0.5 AND LAMBDA = 1
Info: FEP VDW ACTIVE FOR ANNIHILATED PARTICLES BETWEEN LAMBDA = 0 AND LAMBDA = 1
Info: FEP VDW ACTIVE FOR EXNIHILATED PARTICLES BETWEEN LAMBDA = 0 AND LAMBDA = 1
Info: FEP BOND ACTIVE FOR ANNIHILATED PARTICLES BETWEEN LAMBDA = 1 AND LAMBDA = 1
Info: FEP BOND ACTIVE FOR EXNIHILATED PARTICLES BETWEEN LAMBDA = 0 AND LAMBDA = 0
Info: LANGEVIN DYNAMICS ACTIVE
Info: LANGEVIN TEMPERATURE   300
Info: LANGEVIN USING BBK INTEGRATOR
Info: LANGEVIN DAMPING COEFFICIENT IS 1 INVERSE PS
Info: LANGEVIN DYNAMICS APPLIED TO HYDROGENS
Info: LANGEVIN PISTON PRESSURE CONTROL ACTIVE
Info:        TARGET PRESSURE IS 1.01325 BAR
Info:     OSCILLATION PERIOD IS 50 FS
Info:             DECAY TIME IS 25 FS
Info:     PISTON TEMPERATURE IS 300 K
Info:       PRESSURE CONTROL IS GROUP-BASED
Info:    INITIAL STRAIN RATE IS -0.000380686 -0.000380686 -0.000380686
Info:       CELL FLUCTUATION IS ISOTROPIC
Info: PARTICLE MESH EWALD (PME) ACTIVE
Info: PME TOLERANCE               1e-06
Info: PME EWALD COEFFICIENT       0.348832
Info: PME INTERPOLATION ORDER     4
Info: PME GRID DIMENSIONS         36 32 32
Info: PME MAXIMUM GRID SPACING    1
Info: PME CALCULATION WILL BE PERFORMED ON GPU
Info: FULL ELECTROSTATIC EVALUATION FREQUENCY      2
Info: USING VERLET I (r-RESPA) MTS SCHEME.
Info: C1 SPLITTING OF LONG RANGE ELECTROSTATICS
Info: PLACING ATOMS IN PATCHES BY HYDROGEN GROUPS
Info: RIGID BONDS TO HYDROGEN : ALL
Info:         ERROR TOLERANCE : 1e-08
Info:          MAX ITERATIONS : 100
Info: RIGID WATER USING SETTLE ALGORITHM
Info: RANDOM NUMBER SEED     1744009610
Info: USE HYDROGEN BONDS?    NO
Info: Using AMBER format force field!
Info: AMBER PARM FILE        mobley_7859387.prmtop
Info: COORDINATE PDB         mobley_7859387.pdb
Info: Exclusions will be read from PARM file!
Info: SCNB (VDW SCALING)     2
Info: USING ARITHMETIC MEAN TO COMBINE L-J SIGMA PARAMETERS
Info: BINARY COORDINATES     mobley_7859387_equil.coor
Info: SUMMARY OF PARAMETERS:
Info: 7 BONDS
Info: 8 ANGLES
Info:   8 HARMONIC
Info:   0 COSINE-BASED
Info: 11 DIHEDRAL
Info: 0 IMPROPER
Info: 0 CROSSTERM
Info: 0 VDW
Info: 28 VDW_PAIRS
Info: 0 NBTHOLE_PAIRS
Info: To read alchdata from file: mobley_7859387.pdb
Info: To read alchflag data from column: 5
Info: STRUCTURE SUMMARY:
Info: 2905 ATOMS
Info: 2904 BONDS
Info: 39 ANGLES
Info: 62 DIHEDRALS
Info: 0 IMPROPERS
Info: 0 CROSSTERMS
Info: 2994 EXCLUSIONS
Info: 2897 RIGID BONDS
Info: ALCH: 0 ATOMS TO DISAPPEAR IN FINAL STATE
Info: ALCH: 22 ATOMS TO APPEAR IN FINAL STATE
Info: 5818 DEGREES OF FREEDOM
Info: 969 HYDROGEN GROUPS
Info: 4 ATOMS IN LARGEST HYDROGEN GROUP
Info: 969 MIGRATION GROUPS
Info: 4 ATOMS IN LARGEST MIGRATION GROUP
Info: TOTAL MASS = 17427.6 amu
Info: TOTAL CHARGE = 0.000199953 e
Info: MASS DENSITY = 0.979233 g/cm^3
Info: ATOM DENSITY = 0.0982962 atoms/A^3
Info: ADDED 0 IMPLICIT EXCLUSIONS
Info: NONBONDED TABLE R-SQUARED SPACING: 0.0625
Info: NONBONDED TABLE SIZE: 705 POINTS
Info: REMOVING COM VELOCITY -0.149299 -0.0268911 -0.0830872
Info: Use 3D box decompostion in PME FFT.
Info: Updated CUDA force table with 4096 elements.
Info: Updated CUDA LJ table with 7 x 7 elements.
Info: Found 25 unique exclusion lists needing 80 bytes
TCL: Running for 1500000 steps
ETITLE: TS BOND ANGLE DIHED IMPRP ELECT VDW BOUNDARY MISC KINETIC TOTAL TEMP POTENTIAL TOTALAVG TEMPAVG PRESSURE GPRESSURE VOLUME PRESSAVG GPRESSAVG
ENERGY: 0 1.4886 8.4663 3.5535 0.0000 -10597.7505 1451.1706 0.0000 0.0000 1758.9754 -7374.0961 304.2821 -9133.0715 -7374.0961 304.2821 327.6463 402.5198 29553.5463 327.6463 402.5198
ENERGY: 300000 0.7150 7.2035 4.3287 0.0000 -10403.1119 1285.1257 0.0000 0.0000 1691.4974 -7414.2416 292.6092 -9105.7390 -7356.6314 302.0739 -1148.6821 -1068.3623 30311.5758 -525.4912 -448.8175
ENERGY: 600000 3.0303 14.2828 8.1358 0.0000 -10545.4437 1432.5673 0.0000 0.0000 1737.4665 -7349.9611 300.5613 -9087.4275 -7344.6679 302.7411 152.4648 148.6203 29932.0125 -215.8950 -145.5569
ENERGY: 900000 1.2592 12.4776 3.6306 0.0000 -10454.3207 1360.3714 0.0000 0.0000 1721.9267 -7354.6551 297.8731 -9076.5818 -7324.2686 302.4024 -131.5199 -74.2471 29731.2430 -229.4380 -169.5248
ENERGY: 1200000 2.3475 6.1907 5.3842 0.0000 -10499.9512 1406.7561 0.0000 0.0000 1729.6242 -7349.6485 299.2047 -9079.2727 -7321.6153 301.5708 109.8600 181.3085 29634.8041 -170.1165 -110.8000
ENERGY: 1500000 1.9317 12.6405 2.8250 0.0000 -10408.0739 1349.5334 0.0000 0.0000 1695.7095 -7345.4339 293.3379 -9041.1434 -7318.5940 300.6219 -690.4219 -586.2147 30359.1440 -242.6492 -180.8185
TCL: Running FEP window   2: Lambda1 0.95   Lambda2 0.8999999999999999 [dLambda -0.050000000000000044]
TCL: Setting parameter firsttimestep to 0
TCL: Setting parameter alchLambda to 0.95
Info: NONBONDED TABLE R-SQUARED SPACING: 0.0625
Info: NONBONDED TABLE SIZE: 705 POINTS
TCL: Setting parameter alchLambda2 to 0.8999999999999999
Info: NONBONDED TABLE R-SQUARED SPACING: 0.0625
Info: NONBONDED TABLE SIZE: 705 POINTS
TCL: Running for 1500000 steps
ETITLE: TS BOND ANGLE DIHED IMPRP ELECT VDW BOUNDARY MISC KINETIC TOTAL TEMP POTENTIAL TOTALAVG TEMPAVG PRESSURE GPRESSURE VOLUME PRESSAVG GPRESSAVG
ENERGY: 0 1.9317 12.6405 2.8250 0.0000 -10406.3656 1349.0044 0.0000 0.0000 1694.8273 -7345.1368 293.1853 -9039.9642 -7345.1368 293.1853 -700.3531 -609.9527 30359.1440 -700.3531 -609.9527
ENERGY: 300000 0.6399 10.9082 4.9238 0.0000 -10408.8745 1327.6845 0.0000 0.0000 1800.6988 -7264.0193 311.4998 -9064.7181 -7302.9777 304.4838 -286.1163 -194.8031 29502.1108 -84.0006 -28.5666
ENERGY: 600000 4.2792 9.6343 2.8387 0.0000 -10526.3000 1427.7781 0.0000 0.0000 1764.7467 -7317.0232 305.2805 -9081.7698 -7331.8232 302.7297 -30.1542 4.4897 30127.8675 -71.1529 -21.9424
ENERGY: 900000 0.8033 8.4387 3.5980 0.0000 -10388.7886 1382.9192 0.0000 0.0000 1664.7943 -7328.2350 287.9899 -8993.0294 -7345.8359 300.4520 87.2533 61.3008 29931.0276 -83.7455 -40.5852
ENERGY: 1200000 3.1621 9.0660 4.0800 0.0000 -10485.4421 1368.0926 0.0000 0.0000 1754.6134 -7346.4280 303.5275 -9101.0414 -7339.0580 301.5776 -507.6987 -499.4978 29964.6856 -97.5969 -50.0387
ENERGY: 1500000 3.4108 14.5937 4.7504 0.0000 -10526.1915 1451.3697 0.0000 0.0000 1737.4972 -7314.5697 300.5666 -9052.0669 -7335.1030 301.9099 153.5102 249.7723 29872.7262 -65.9630 -9.2609
TCL: Running FEP window   3: Lambda1 0.8999999999999999 Lambda2 0.8499999999999999 [dLambda -0.050000000000000044]
TCL: Setting parameter firsttimestep to 0
TCL: Setting parameter alchLambda to 0.8999999999999999
Info: NONBONDED TABLE R-SQUARED SPACING: 0.0625
Info: NONBONDED TABLE SIZE: 705 POINTS
TCL: Setting parameter alchLambda2 to 0.8499999999999999
Info: NONBONDED TABLE R-SQUARED SPACING: 0.0625
Info: NONBONDED TABLE SIZE: 705 POINTS
TCL: Running for 1500000 steps
ETITLE: TS BOND ANGLE DIHED IMPRP ELECT VDW BOUNDARY MISC KINETIC TOTAL TEMP POTENTIAL TOTALAVG TEMPAVG PRESSURE GPRESSURE VOLUME PRESSAVG GPRESSAVG
ENERGY: 0 3.4108 14.5937 4.7504 0.0000 -10525.4445 1451.8590 0.0000 0.0000 1736.6250 -7314.2055 300.4158 -9050.8306 -7314.2055 300.4158 156.5357 240.8174 29872.7262 156.5357 240.8174
ENERGY: 300000 2.7928 5.5586 5.7909 0.0000 -10359.4826 1284.4417 0.0000 0.0000 1733.8073 -7327.0913 299.9283 -9060.8986 -7315.8776 298.5506 -1208.4134 -1128.0081 30475.3202 -38.4991 29.0048
ENERGY: 600000 4.7708 11.6206 3.9247 0.0000 -10413.1518 1376.4109 0.0000 0.0000 1679.9175 -7336.5073 290.6060 -9016.4248 -7311.2841 299.6861 229.2853 256.1905 29603.1800 3.5263 61.4142
ENERGY: 900000 2.1327 10.1691 3.7169 0.0000 -10455.8369 1407.6279 0.0000 0.0000 1732.1457 -7300.0445 299.6409 -9032.1902 -7322.8141 299.1178 199.7445 238.9568 29941.8270 20.5155 81.3445
ENERGY: 1200000 1.9358 9.2399 4.4550 0.0000 -10569.1960 1452.5627 0.0000 0.0000 1712.0555 -7388.9471 296.1655 -9101.0026 -7325.0260 300.2875 340.0606 422.7127 29955.6987 25.4259 87.7093
ENERGY: 1500000 2.3736 12.5330 4.9151 0.0000 -10518.4834 1413.1011 0.0000 0.0000 1717.2091 -7368.3515 297.0570 -9085.5605 -7332.5547 299.7801 -273.3578 -169.4382 30080.0137 1.4910 62.2320
TCL: Running FEP window   4: Lambda1 0.8499999999999999 Lambda2 0.7999999999999998 [dLambda -0.050000000000000044]
TCL: Setting parameter firsttimestep to 0
TCL: Setting parameter alchLambda to 0.8499999999999999
Info: NONBONDED TABLE R-SQUARED SPACING: 0.0625
Info: NONBONDED TABLE SIZE: 705 POINTS
TCL: Setting parameter alchLambda2 to 0.7999999999999998
Info: NONBONDED TABLE R-SQUARED SPACING: 0.0625
Info: NONBONDED TABLE SIZE: 705 POINTS
TCL: Running for 1500000 steps
ETITLE: TS BOND ANGLE DIHED IMPRP ELECT VDW BOUNDARY MISC KINETIC TOTAL TEMP POTENTIAL TOTALAVG TEMPAVG PRESSURE GPRESSURE VOLUME PRESSAVG GPRESSAVG
ENERGY: 0 2.3736 12.5330 4.9151 0.0000 -10517.4415 1413.1768 0.0000 0.0000 1716.3536 -7368.0893 296.9090 -9084.4429 -7368.0893 296.9090 -280.4115 -181.4283 30080.0137 -280.4115 -181.4283
ENERGY: 300000 1.1405 13.3484 4.4982 0.0000 -10535.6911 1397.7885 0.0000 0.0000 1763.4713 -7355.4441 305.0599 -9118.9154 -7337.7169 300.7806 -186.3658 -103.2187 30053.8273 -125.5671 -57.8542
ENERGY: 600000 1.8501 10.0442 4.8223 0.0000 -10404.3162 1312.8366 0.0000 0.0000 1721.2228 -7353.5403 297.7514 -9074.7630 -7336.1136 298.2891 -1167.4819 -1045.3554 30517.6853 -397.2201 -328.4637
ENERGY: 900000 4.5661 9.2320 4.1054 0.0000 -10556.7497 1468.6529 0.0000 0.0000 1740.9273 -7329.2659 301.1600 -9070.1932 -7328.3116 299.2276 331.4009 397.8459 30187.8049 -190.0709 -121.0623
ENERGY: 1200000 1.6593 14.2165 5.5653 0.0000 -10568.1633 1457.3735 0.0000 0.0000 1721.4206 -7367.9280 297.7856 -9089.3487 -7329.8734 299.6658 442.1662 455.4816 29691.1174 -122.0848 -60.0987
ENERGY: 1500000 4.2057 7.2698 5.5530 0.0000 -10479.4427 1417.1464 0.0000 0.0000 1683.8849 -7361.3829 291.2923 -9045.2678 -7329.0916 299.7013 -30.6918 14.7503 30229.6539 -81.4249 -18.5911
TCL: Running FEP window   5: Lambda1 0.7999999999999998 Lambda2 0.7499999999999998 [dLambda -0.050000000000000044]
TCL: Setting parameter firsttimestep to 0
TCL: Setting parameter alchLambda to 0.7999999999999998
Info: NONBONDED TABLE R-SQUARED SPACING: 0.0625
Info: NONBONDED TABLE SIZE: 705 POINTS
TCL: Setting parameter alchLambda2 to 0.7499999999999998
Info: NONBONDED TABLE R-SQUARED SPACING: 0.0625
Info: NONBONDED TABLE SIZE: 705 POINTS
TCL: Running for 1500000 steps
ETITLE: TS BOND ANGLE DIHED IMPRP ELECT VDW BOUNDARY MISC KINETIC TOTAL TEMP POTENTIAL TOTALAVG TEMPAVG PRESSURE GPRESSURE VOLUME PRESSAVG GPRESSAVG
ENERGY: 0 4.2057 7.2698 5.5530 0.0000 -10478.9746 1417.1378 0.0000 0.0000 1683.0007 -7361.8077 291.1394 -9044.8083 -7361.8077 291.1394 -64.5561 5.9760 30229.6539 -64.5561 5.9760
ENERGY: 300000 0.8372 8.8411 3.5963 0.0000 -10601.6040 1457.5187 0.0000 0.0000 1725.8598 -7404.9510 298.5535 -9130.8108 -7349.0129 301.0347 205.9764 261.5570 29949.1882 290.2428 326.2013
ENERGY: 600000 4.2880 12.9329 2.8235 0.0000 -10538.3827 1369.4496 0.0000 0.0000 1699.2835 -7449.6051 293.9561 -9148.8886 -7361.1093 300.9770 -467.6068 -479.4407 29606.7137 -62.8671 -20.4168
ENERGY: 900000 0.9884 9.6191 4.6813 0.0000 -10657.8237 1534.5142 0.0000 0.0000 1721.6119 -7386.4088 297.8187 -9108.0207 -7376.0551 300.3032 1035.0078 1142.0493 29686.6694 -20.8795 33.0648
ENERGY: 1200000 2.7114 5.6481 5.2188 0.0000 -10473.2676 1344.3292 0.0000 0.0000 1711.7530 -7403.6072 296.1132 -9115.3602 -7374.6520 300.2105 -588.3663 -538.5917 29568.3365 -4.0369 53.8441
ENERGY: 1500000 0.9346 10.1159 3.7355 0.0000 -10449.3362 1343.0964 0.0000 0.0000 1690.4334 -7401.0205 292.4252 -9091.4539 -7375.4236 298.8687 -672.1571 -600.6531 29761.7545 -54.8572 0.3066
TCL: Running FEP window   6: Lambda1 0.7499999999999998 Lambda2 0.6999999999999997 [dLambda -0.050000000000000044]
TCL: Setting parameter firsttimestep to 0
TCL: Setting parameter alchLambda to 0.7499999999999998
Info: NONBONDED TABLE R-SQUARED SPACING: 0.0625
Info: NONBONDED TABLE SIZE: 705 POINTS
TCL: Setting parameter alchLambda2 to 0.6999999999999997
Info: NONBONDED TABLE R-SQUARED SPACING: 0.0625
Info: NONBONDED TABLE SIZE: 705 POINTS
TCL: Running for 1500000 steps
ETITLE: TS BOND ANGLE DIHED IMPRP ELECT VDW BOUNDARY MISC KINETIC TOTAL TEMP POTENTIAL TOTALAVG TEMPAVG PRESSURE GPRESSURE VOLUME PRESSAVG GPRESSAVG
ENERGY: 0 0.9346 10.1159 3.7355 0.0000 -10448.3471 1343.4059 0.0000 0.0000 1689.5853 -7400.5699 292.2784 -9090.1552 -7400.5699 292.2784 -700.7156 -607.7815 29761.7545 -700.7156 -607.7815
ENERGY: 300000 1.4112 15.3360 6.1187 0.0000 -10444.6454 1364.4860 0.0000 0.0000 1709.2758 -7348.0176 295.6847 -9057.2934 -7355.5380 299.0805 -368.7638 -314.3641 29906.8855 -121.9602 -48.4367
ENERGY: 600000 4.1299 10.6436 3.2225 0.0000 -10444.1820 1404.6364 0.0000 0.0000 1725.8785 -7295.6712 298.5567 -9021.5496 -7351.8631 298.1590 309.8546 302.1734 29742.4636 -70.4454 -18.8150
ENERGY: 900000 1.5125 6.6503 5.4093 0.0000 -10490.7892 1422.7285 0.0000 0.0000 1734.1145 -7320.3741 299.9815 -9054.4886 -7344.8519 298.4165 -2.3486 80.7715 30269.6694 -64.9150 -8.8312
ENERGY: 1200000 6.1651 11.0755 3.7934 0.0000 -10551.3699 1464.3879 0.0000 0.0000 1746.5798 -7319.3681 302.1378 -9065.9479 -7342.8934 299.0572 489.0560 576.2955 29886.0294 -20.0492 35.6561
ENERGY: 1500000 2.0168 9.7541 4.0860 0.0000 -10680.6551 1513.6442 0.0000 0.0000 1724.5734 -7426.5806 298.3310 -9151.1540 -7343.3301 299.4023 765.2219 799.3625 29585.7658 14.4961 70.8528
TCL: Running FEP window   7: Lambda1 0.6999999999999997 Lambda2 0.6499999999999997 [dLambda -0.050000000000000044]
TCL: Setting parameter firsttimestep to 0
TCL: Setting parameter alchLambda to 0.6999999999999997
Info: NONBONDED TABLE R-SQUARED SPACING: 0.0625
Info: NONBONDED TABLE SIZE: 705 POINTS
TCL: Setting parameter alchLambda2 to 0.6499999999999997
Info: NONBONDED TABLE R-SQUARED SPACING: 0.0625
Info: NONBONDED TABLE SIZE: 705 POINTS
TCL: Running for 1500000 steps
ETITLE: TS BOND ANGLE DIHED IMPRP ELECT VDW BOUNDARY MISC KINETIC TOTAL TEMP POTENTIAL TOTALAVG TEMPAVG PRESSURE GPRESSURE VOLUME PRESSAVG GPRESSAVG
ENERGY: 0 2.0168 9.7541 4.0860 0.0000 -10680.1668 1514.0184 0.0000 0.0000 1723.7037 -7426.5879 298.1805 -9150.2915 -7426.5879 298.1805 719.1256 788.8678 29585.7658 719.1256 788.8678
ENERGY: 300000 1.3865 10.4216 8.1344 0.0000 -10533.2001 1452.8640 0.0000 0.0000 1687.4225 -7372.9712 291.9043 -9060.3937 -7357.7705 297.9161 227.1902 341.0686 29843.2308 74.9258 145.2485
ENERGY: 600000 1.8022 11.8476 6.6584 0.0000 -10541.4406 1454.8592 0.0000 0.0000 1761.6605 -7304.6128 304.7466 -9066.2733 -7342.5711 301.6237 344.8623 369.7021 30068.6471 226.5101 293.0188
ENERGY: 900000 4.0442 11.3341 5.6143 0.0000 -10499.9757 1357.3493 0.0000 0.0000 1746.2565 -7375.3773 302.0819 -9121.6339 -7342.0930 301.5662 -563.0892 -496.5623 30140.1372 172.9415 231.5068
ENERGY: 1200000 2.2168 12.0488 3.8973 0.0000 -10413.4621 1355.0564 0.0000 0.0000 1725.6073 -7314.6355 298.5098 -9040.2428 -7349.1708 300.0631 -373.1314 -330.9587 30147.2937 87.5046 138.1747
ENERGY: 1500000 1.9536 9.2787 3.9299 0.0000 -10453.5073 1387.3322 0.0000 0.0000 1732.7048 -7318.3082 299.7376 -9051.0130 -7338.2145 300.2588 92.5146 122.3173 29514.6530 62.7603 110.8913
TCL: Running FEP window   8: Lambda1 0.6499999999999997 Lambda2 0.5999999999999996 [dLambda -0.050000000000000044]
TCL: Setting parameter firsttimestep to 0
TCL: Setting parameter alchLambda to 0.6499999999999997
Info: NONBONDED TABLE R-SQUARED SPACING: 0.0625
Info: NONBONDED TABLE SIZE: 705 POINTS
TCL: Setting parameter alchLambda2 to 0.5999999999999996
Info: NONBONDED TABLE R-SQUARED SPACING: 0.0625
Info: NONBONDED TABLE SIZE: 705 POINTS
TCL: Running for 1500000 steps
ETITLE: TS BOND ANGLE DIHED IMPRP ELECT VDW BOUNDARY MISC KINETIC TOTAL TEMP POTENTIAL TOTALAVG TEMPAVG PRESSURE GPRESSURE VOLUME PRESSAVG GPRESSAVG
ENERGY: 0 1.9536 9.2787 3.9299 0.0000 -10452.7347 1387.5160 0.0000 0.0000 1731.8554 -7318.2012 299.5907 -9050.0566 -7318.2012 299.5907 35.9308 117.0592 29514.6530 35.9308 117.0592
ENERGY: 300000 2.1451 6.9805 6.7881 0.0000 -10260.0865 1285.0979 0.0000 0.0000 1739.4728 -7219.6022 300.9084 -8959.0750 -7307.0334 300.7351 -819.8955 -784.1029 30158.7703 -380.1190 -301.1216
ENERGY: 600000 2.5452 8.3884 4.1487 0.0000 -10679.6118 1520.0166 0.0000 0.0000 1726.9228 -7417.5901 298.7374 -9144.5129 -7342.2898 300.3080 676.3800 682.0524 29791.9061 -185.1758 -121.6755
ENERGY: 900000 2.5038 8.7149 4.9186 0.0000 -10457.8634 1339.1711 0.0000 0.0000 1732.2095 -7370.3455 299.6519 -9102.5550 -7345.9424 300.3276 -865.3334 -817.2276 30114.5960 -142.8704 -79.1829
ENERGY: 1200000 0.9736 10.4415 3.1305 0.0000 -10422.8498 1389.4669 0.0000 0.0000 1740.6235 -7278.2139 301.1075 -9018.8374 -7340.3560 300.0209 324.6298 407.9354 29554.6174 -68.7816 -7.2181
ENERGY: 1500000 3.5709 13.6503 4.1729 0.0000 -10581.0612 1423.8032 0.0000 0.0000 1687.3414 -7448.5225 291.8903 -9135.8639 -7339.2063 300.1532 -125.4389 -68.9676 29618.5125 -27.7783 35.2280
TCL: Running FEP window   9: Lambda1 0.5999999999999996 Lambda2 0.5499999999999996 [dLambda -0.050000000000000044]
TCL: Setting parameter firsttimestep to 0
TCL: Setting parameter alchLambda to 0.5999999999999996
Info: NONBONDED TABLE R-SQUARED SPACING: 0.0625
Info: NONBONDED TABLE SIZE: 705 POINTS
TCL: Setting parameter alchLambda2 to 0.5499999999999996
Info: NONBONDED TABLE R-SQUARED SPACING: 0.0625
Info: NONBONDED TABLE SIZE: 705 POINTS
TCL: Running for 1500000 steps
ETITLE: TS BOND ANGLE DIHED IMPRP ELECT VDW BOUNDARY MISC KINETIC TOTAL TEMP POTENTIAL TOTALAVG TEMPAVG PRESSURE GPRESSURE VOLUME PRESSAVG GPRESSAVG
ENERGY: 0 3.5709 13.6503 4.1729 0.0000 -10581.0492 1423.5997 0.0000 0.0000 1686.5017 -7449.5538 291.7450 -9136.0555 -7449.5538 291.7450 -164.6033 -80.8632 29618.5125 -164.6033 -80.8632
ENERGY: 300000 1.2446 13.1996 3.6408 0.0000 -10537.9350 1409.8466 0.0000 0.0000 1811.5017 -7298.5017 313.3686 -9110.0034 -7354.1680 303.9559 91.6218 143.8989 29566.5193 118.6938 184.6241
ENERGY: 600000 1.6711 9.5676 4.0727 0.0000 -10440.0576 1400.5186 0.0000 0.0000 1717.0196 -7307.2080 297.0243 -9024.2275 -7352.1866 301.7445 -146.0259 -101.4769 30331.4587 29.9516 95.4815
ENERGY: 900000 0.8100 13.2530 3.6896 0.0000 -10343.9186 1391.6267 0.0000 0.0000 1755.0376 -7179.5017 303.6009 -8934.5393 -7331.3655 302.5310 252.9294 323.4518 29798.0086 -6.7525 58.0892
ENERGY: 1200000 3.3286 11.3668 5.0008 0.0000 -10534.7115 1385.1932 0.0000 0.0000 1739.4283 -7390.3938 300.9007 -9129.8220 -7337.7262 302.1645 -564.6037 -499.9019 29980.0593 -48.4767 22.6361
ENERGY: 1500000 3.0802 8.3366 5.3163 0.0000 -10349.1232 1315.1848 0.0000 0.0000 1753.2051 -7264.0001 303.2839 -9017.2053 -7334.3412 301.3608 -757.5208 -679.0026 30161.4031 -85.8921 -14.7111
TCL: Running FEP window  10: Lambda1 0.5499999999999996 Lambda2 0.4999999999999996 [dLambda -0.04999999999999999]
TCL: Setting parameter firsttimestep to 0
TCL: Setting parameter alchLambda to 0.5499999999999996
Info: NONBONDED TABLE R-SQUARED SPACING: 0.0625
Info: NONBONDED TABLE SIZE: 705 POINTS
TCL: Setting parameter alchLambda2 to 0.4999999999999996
Info: NONBONDED TABLE R-SQUARED SPACING: 0.0625
Info: NONBONDED TABLE SIZE: 705 POINTS
TCL: Running for 1500000 steps
ETITLE: TS BOND ANGLE DIHED IMPRP ELECT VDW BOUNDARY MISC KINETIC TOTAL TEMP POTENTIAL TOTALAVG TEMPAVG PRESSURE GPRESSURE VOLUME PRESSAVG GPRESSAVG
ENERGY: 0 3.0802 8.3366 5.3163 0.0000 -10348.7889 1315.1033 0.0000 0.0000 1752.3554 -7264.5972 303.1369 -9016.9525 -7264.5972 303.1369 -761.6524 -684.5896 30161.4031 -761.6524 -684.5896
ENERGY: 300000 2.0045 14.5239 4.5752 0.0000 -10625.4046 1496.9313 0.0000 0.0000 1704.8499 -7402.5199 294.9190 -9107.3698 -7350.4952 296.0941 446.3716 547.0275 30147.6898 288.9040 358.3919
ENERGY: 600000 1.5711 10.6035 4.9291 0.0000 -10488.0917 1377.8041 0.0000 0.0000 1664.6041 -7428.5798 287.9570 -9093.1839 -7370.7342 294.6192 -411.6155 -330.9987 29804.8428 -0.0520 77.8692
ENERGY: 900000 1.5996 9.0671 5.0998 0.0000 -10474.7718 1396.0204 0.0000 0.0000 1738.3561 -7324.6288 300.7152 -9062.9849 -7356.3793 297.3106 -55.0589 15.5494 29896.2686 -62.0495 10.3804
ENERGY: 1200000 0.7050 13.3429 4.9876 0.0000 -10544.9993 1435.4970 0.0000 0.0000 1686.1842 -7404.2826 291.6901 -9090.4668 -7357.0826 296.4418 220.9800 325.3080 29694.1236 -2.4426 70.7298
ENERGY: 1500000 2.8652 12.9991 6.5715 0.0000 -10507.8002 1391.7585 0.0000 0.0000 1788.2854 -7305.3205 309.3524 -9093.6059 -7353.1261 297.6337 -157.0486 -141.1990 30099.3291 25.3788 97.6208
TCL: Running FEP window  11: Lambda1 0.4999999999999996 Lambda2 0.4499999999999996 [dLambda -0.04999999999999999]
TCL: Setting parameter firsttimestep to 0
TCL: Setting parameter alchLambda to 0.4999999999999996
Info: NONBONDED TABLE R-SQUARED SPACING: 0.0625
Info: NONBONDED TABLE SIZE: 705 POINTS
TCL: Setting parameter alchLambda2 to 0.4499999999999996
Info: NONBONDED TABLE R-SQUARED SPACING: 0.0625
Info: NONBONDED TABLE SIZE: 705 POINTS
TCL: Running for 1500000 steps
ETITLE: TS BOND ANGLE DIHED IMPRP ELECT VDW BOUNDARY MISC KINETIC TOTAL TEMP POTENTIAL TOTALAVG TEMPAVG PRESSURE GPRESSURE VOLUME PRESSAVG GPRESSAVG
ENERGY: 0 2.8652 12.9991 6.5715 0.0000 -10508.3779 1392.2944 0.0000 0.0000 1787.4181 -7306.2297 309.2024 -9093.6477 -7306.2297 309.2024 -220.3336 -144.3509 30099.3291 -220.3336 -144.3509
ENERGY: 300000 2.2130 13.2963 5.2553 0.0000 -10548.2729 1456.8383 0.0000 0.0000 1746.7338 -7323.9362 302.1645 -9070.6700 -7302.7692 305.0450 338.8361 278.6247 30030.0999 25.5777 49.7074
ENERGY: 600000 2.4666 16.4099 4.0962 0.0000 -10525.9428 1457.4389 0.0000 0.0000 1726.8133 -7318.7178 298.7185 -9045.5312 -7327.5432 301.0127 327.7100 373.2795 29991.1042 80.3396 108.2169
ENERGY: 900000 1.6005 9.5745 4.3201 0.0000 -10560.6777 1420.2626 0.0000 0.0000 1737.8246 -7387.0953 300.6233 -9124.9199 -7345.8297 299.8380 -38.5234 54.1636 29821.4825 22.9495 58.3024
ENERGY: 1200000 1.8403 13.9566 3.2938 0.0000 -10403.8436 1318.1887 0.0000 0.0000 1703.1169 -7363.4473 294.6192 -9066.5642 -7339.9074 299.4348 -722.5978 -663.6343 29512.7082 -128.3775 -92.5201
ENERGY: 1500000 1.5240 8.9348 3.8724 0.0000 -10424.2021 1380.5019 0.0000 0.0000 1694.8426 -7334.5264 293.1879 -9029.3689 -7332.2859 299.3472 -160.8345 -113.5490 29853.0113 -152.2586 -112.1448
TCL: Running FEP window  12: Lambda1 0.4499999999999996 Lambda2 0.39999999999999963 [dLambda -0.04999999999999999]
TCL: Setting parameter firsttimestep to 0
TCL: Setting parameter alchLambda to 0.4499999999999996
Info: NONBONDED TABLE R-SQUARED SPACING: 0.0625
Info: NONBONDED TABLE SIZE: 705 POINTS
TCL: Setting parameter alchLambda2 to 0.39999999999999963
Info: NONBONDED TABLE R-SQUARED SPACING: 0.0625
Info: NONBONDED TABLE SIZE: 705 POINTS
TCL: Running for 1500000 steps
ETITLE: TS BOND ANGLE DIHED IMPRP ELECT VDW BOUNDARY MISC KINETIC TOTAL TEMP POTENTIAL TOTALAVG TEMPAVG PRESSURE GPRESSURE VOLUME PRESSAVG GPRESSAVG
ENERGY: 0 1.5240 8.9348 3.8724 0.0000 -10424.2030 1380.7088 0.0000 0.0000 1693.9864 -7335.1766 293.0398 -9029.1630 -7335.1766 293.0398 -202.5745 -120.0193 29853.0113 -202.5745 -120.0193
ENERGY: 300000 4.0532 7.6116 4.1438 0.0000 -10511.2465 1381.2436 0.0000 0.0000 1716.5881 -7397.6061 296.9496 -9114.1942 -7366.8660 293.7162 -367.8146 -271.8407 29404.2793 -117.5434 -41.5308
ENERGY: 600000 3.2732 9.0373 3.7761 0.0000 -10455.9260 1451.4697 0.0000 0.0000 1769.4787 -7218.8910 306.0991 -8988.3697 -7345.8945 295.6413 401.4705 439.4029 30113.1702 -115.3874 -49.4866
ENERGY: 900000 3.1964 11.2037 4.2309 0.0000 -10397.6748 1389.1275 0.0000 0.0000 1758.2064 -7231.7099 304.1491 -8989.9163 -7335.9409 295.9224 -19.2238 77.1190 30007.4008 -191.7267 -113.5194
ENERGY: 1200000 1.0567 9.2509 3.7384 0.0000 -10585.3987 1413.6826 0.0000 0.0000 1792.3390 -7365.3312 310.0536 -9157.6701 -7345.1560 296.8473 198.4254 294.1172 29172.3295 -93.7563 -19.8292
ENERGY: 1500000 0.2672 12.4201 2.8842 0.0000 -10371.1170 1334.8950 0.0000 0.0000 1762.6228 -7258.0278 304.9131 -9020.6505 -7341.9778 296.3931 -717.1601 -643.2386 30306.3520 -178.7276 -105.7163
TCL: Running FEP window  13: Lambda1 0.39999999999999963 Lambda2 0.34999999999999964 [dLambda -0.04999999999999999]
TCL: Setting parameter firsttimestep to 0
TCL: Setting parameter alchLambda to 0.39999999999999963
Info: NONBONDED TABLE R-SQUARED SPACING: 0.0625
Info: NONBONDED TABLE SIZE: 705 POINTS
TCL: Setting parameter alchLambda2 to 0.34999999999999964
Info: NONBONDED TABLE R-SQUARED SPACING: 0.0625
Info: NONBONDED TABLE SIZE: 705 POINTS
TCL: Running for 1500000 steps
ETITLE: TS BOND ANGLE DIHED IMPRP ELECT VDW BOUNDARY MISC KINETIC TOTAL TEMP POTENTIAL TOTALAVG TEMPAVG PRESSURE GPRESSURE VOLUME PRESSAVG GPRESSAVG
ENERGY: 0 0.2672 12.4201 2.8842 0.0000 -10371.1163 1335.0925 0.0000 0.0000 1761.7959 -7258.6564 304.7700 -9020.4523 -7258.6564 304.7700 -729.7463 -646.4775 30306.3520 -729.7463 -646.4775
ENERGY: 300000 1.8366 8.6496 5.0819 0.0000 -10523.2533 1387.0645 0.0000 0.0000 1751.5609 -7369.0598 302.9995 -9120.6206 -7362.0491 299.5924 -145.2773 -125.1035 29340.4864 -85.4485 -26.3556
ENERGY: 600000 1.9815 10.9287 3.5317 0.0000 -10410.0134 1379.6853 0.0000 0.0000 1755.3919 -7258.4944 303.6622 -9013.8863 -7328.9804 300.7201 -141.9825 -46.5939 29680.5372 -108.6790 -41.9809
ENERGY: 900000 1.4667 10.1437 6.6945 0.0000 -10490.7468 1376.5754 0.0000 0.0000 1646.2446 -7449.6219 284.7810 -9095.8665 -7334.5646 298.2370 -645.4563 -520.5025 29866.4722 -45.2812 22.6349
ENERGY: 1200000 2.5571 8.1357 5.1122 0.0000 -10470.7464 1370.6463 0.0000 0.0000 1744.0246 -7340.2706 301.6958 -9084.2952 -7334.5080 299.0837 -263.1856 -184.8429 29637.7144 -65.5105 2.8238
ENERGY: 1500000 4.0056 17.0561 7.0567 0.0000 -10405.4725 1365.9436 0.0000 0.0000 1730.9703 -7280.4403 299.4376 -9011.4106 -7320.8506 299.5287 -378.0074 -332.6548 30039.9733 24.9474 86.2697
TCL: Running FEP window  14: Lambda1 0.34999999999999964 Lambda2 0.29999999999999966 [dLambda -0.04999999999999999]
TCL: Setting parameter firsttimestep to 0
TCL: Setting parameter alchLambda to 0.34999999999999964
Info: NONBONDED TABLE R-SQUARED SPACING: 0.0625
Info: NONBONDED TABLE SIZE: 705 POINTS
TCL: Setting parameter alchLambda2 to 0.29999999999999966
Info: NONBONDED TABLE R-SQUARED SPACING: 0.0625
Info: NONBONDED TABLE SIZE: 705 POINTS
TCL: Running for 1500000 steps
ETITLE: TS BOND ANGLE DIHED IMPRP ELECT VDW BOUNDARY MISC KINETIC TOTAL TEMP POTENTIAL TOTALAVG TEMPAVG PRESSURE GPRESSURE VOLUME PRESSAVG GPRESSAVG
ENERGY: 0 4.0056 17.0561 7.0567 0.0000 -10405.4724 1365.4741 0.0000 0.0000 1730.1092 -7281.7708 299.2886 -9011.8800 -7281.7708 299.2886 -418.4861 -341.0271 30039.9733 -418.4861 -341.0271
ENERGY: 300000 2.1033 7.8935 6.4542 0.0000 -10554.0468 1401.1881 0.0000 0.0000 1748.4183 -7387.9893 302.4559 -9136.4076 -7303.9279 304.6157 35.5604 127.5531 29217.3748 -219.3603 -143.9682
ENERGY: 600000 2.6543 8.4141 3.1622 0.0000 -10702.0746 1541.6342 0.0000 0.0000 1768.6015 -7377.6084 305.9473 -9146.2099 -7322.0412 304.4773 913.2291 1038.7342 29487.8197 -122.2609 -44.8885
ENERGY: 900000 2.5413 10.9241 3.8858 0.0000 -10423.4214 1402.3454 0.0000 0.0000 1737.2106 -7266.5142 300.5171 -9003.7248 -7316.8750 303.3513 42.4059 84.7775 29840.5524 -14.8579 61.2301
ENERGY: 1200000 2.7642 13.1803 3.9783 0.0000 -10512.5817 1425.0622 0.0000 0.0000 1755.4393 -7312.1574 303.6704 -9067.5967 -7314.2766 302.7862 256.4393 263.2595 29805.4666 -35.6299 33.3538
ENERGY: 1500000 3.4557 10.8013 5.2872 0.0000 -10500.0986 1424.5420 0.0000 0.0000 1742.2064 -7313.8060 301.3813 -9056.0124 -7317.9055 301.8075 -159.5365 -168.1232 30185.9297 -26.9710 35.7103
TCL: Running FEP window  15: Lambda1 0.29999999999999966 Lambda2 0.24999999999999967 [dLambda -0.04999999999999999]
TCL: Setting parameter firsttimestep to 0
TCL: Setting parameter alchLambda to 0.29999999999999966
Info: NONBONDED TABLE R-SQUARED SPACING: 0.0625
Info: NONBONDED TABLE SIZE: 705 POINTS
TCL: Setting parameter alchLambda2 to 0.24999999999999967
Info: NONBONDED TABLE R-SQUARED SPACING: 0.0625
Info: NONBONDED TABLE SIZE: 705 POINTS
TCL: Running for 1500000 steps
ETITLE: TS BOND ANGLE DIHED IMPRP ELECT VDW BOUNDARY MISC KINETIC TOTAL TEMP POTENTIAL TOTALAVG TEMPAVG PRESSURE GPRESSURE VOLUME PRESSAVG GPRESSAVG
ENERGY: 0 3.4557 10.8013 5.2872 0.0000 -10500.0990 1423.7774 0.0000 0.0000 1741.3366 -7315.4408 301.2308 -9056.7774 -7315.4408 301.2308 -261.6518 -176.9771 30185.9297 -261.6518 -176.9771
ENERGY: 300000 3.0519 9.5296 4.8056 0.0000 -10479.8807 1354.3022 0.0000 0.0000 1770.9782 -7337.2133 306.3585 -9108.1914 -7340.4603 301.9285 -353.1909 -400.1900 29670.0615 -212.6198 -188.8326
ENERGY: 600000 3.2444 8.8846 5.6606 0.0000 -10469.8700 1377.8855 0.0000 0.0000 1741.5258 -7332.6691 301.2635 -9074.1949 -7353.6493 299.8541 -289.0617 -269.4763 29757.3190 32.7413 59.1727
ENERGY: 900000 3.0244 8.3676 5.0447 0.0000 -10596.7482 1551.4823 0.0000 0.0000 1730.3499 -7298.4794 299.3302 -9028.8293 -7352.3933 300.8626 1103.8522 1190.8381 29733.8023 70.1166 108.9955
ENERGY: 1200000 3.8414 12.4428 3.8297 0.0000 -10578.7618 1496.2091 0.0000 0.0000 1712.7513 -7349.6874 296.2859 -9062.4387 -7351.7862 300.1224 558.4049 616.8049 29859.0892 163.9549 210.1170
ENERGY: 1500000 2.5943 12.0940 4.2008 0.0000 -10520.4996 1483.4250 0.0000 0.0000 1705.0412 -7313.1443 294.9521 -9018.1855 -7343.8726 299.7739 340.2124 434.0746 29889.4114 212.4699 268.5263
TCL: Running FEP window  16: Lambda1 0.24999999999999967 Lambda2 0.19999999999999968 [dLambda -0.04999999999999999]
TCL: Setting parameter firsttimestep to 0
TCL: Setting parameter alchLambda to 0.24999999999999967
Info: NONBONDED TABLE R-SQUARED SPACING: 0.0625
Info: NONBONDED TABLE SIZE: 705 POINTS
TCL: Setting parameter alchLambda2 to 0.19999999999999968
Info: NONBONDED TABLE R-SQUARED SPACING: 0.0625
Info: NONBONDED TABLE SIZE: 705 POINTS
TCL: Running for 1500000 steps
ETITLE: TS BOND ANGLE DIHED IMPRP ELECT VDW BOUNDARY MISC KINETIC TOTAL TEMP POTENTIAL TOTALAVG TEMPAVG PRESSURE GPRESSURE VOLUME PRESSAVG GPRESSAVG
ENERGY: 0 2.5943 12.0940 4.2008 0.0000 -10520.5001 1483.4847 0.0000 0.0000 1704.1895 -7313.9368 294.8048 -9018.1263 -7313.9368 294.8048 343.5544 430.5625 29889.4114 343.5544 430.5625
ENERGY: 300000 1.5783 4.4701 2.9474 0.0000 -10548.5288 1479.8173 0.0000 0.0000 1701.1814 -7358.5343 294.2844 -9059.7157 -7326.6190 298.0604 588.2241 643.5751 29895.6400 400.0840 474.1057
ENERGY: 600000 0.6820 8.7601 3.9462 0.0000 -10535.1130 1411.0977 0.0000 0.0000 1762.9451 -7347.6820 304.9688 -9110.6271 -7333.0021 297.9775 -208.7191 -135.1684 29808.8831 333.8774 410.0008
ENERGY: 900000 3.1386 9.9140 4.9239 0.0000 -10545.2603 1441.4242 0.0000 0.0000 1755.4411 -7330.4185 303.6707 -9085.8595 -7319.8045 299.3837 11.6266 100.2218 29975.5149 219.4797 291.6703
ENERGY: 1200000 1.2520 9.6720 5.4829 0.0000 -10553.5188 1446.0356 0.0000 0.0000 1726.8657 -7364.2106 298.7275 -9091.0762 -7322.6939 299.2723 266.7041 298.6045 29755.1263 114.7476 187.0821
ENERGY: 1500000 1.9910 6.8745 4.3787 0.0000 -10578.4355 1486.5941 0.0000 0.0000 1754.3170 -7324.2801 303.4763 -9078.5972 -7324.5726 299.6972 381.9863 449.0007 30090.8008 83.0832 150.2037
TCL: Running FEP window  17: Lambda1 0.19999999999999968 Lambda2 0.1499999999999997 [dLambda -0.04999999999999999]
TCL: Setting parameter firsttimestep to 0
TCL: Setting parameter alchLambda to 0.19999999999999968
Info: NONBONDED TABLE R-SQUARED SPACING: 0.0625
Info: NONBONDED TABLE SIZE: 705 POINTS
TCL: Setting parameter alchLambda2 to 0.1499999999999997
Info: NONBONDED TABLE R-SQUARED SPACING: 0.0625
Info: NONBONDED TABLE SIZE: 705 POINTS
TCL: Running for 1500000 steps
ETITLE: TS BOND ANGLE DIHED IMPRP ELECT VDW BOUNDARY MISC KINETIC TOTAL TEMP POTENTIAL TOTALAVG TEMPAVG PRESSURE GPRESSURE VOLUME PRESSAVG GPRESSAVG
ENERGY: 0 1.9910 6.8745 4.3787 0.0000 -10578.4344 1486.7482 0.0000 0.0000 1753.4205 -7325.0216 303.3212 -9078.4421 -7325.0216 303.3212 368.4187 444.0426 30090.8008 368.4187 444.0426
ENERGY: 300000 3.6016 11.1380 4.7174 0.0000 -10472.9048 1465.6090 0.0000 0.0000 1696.6930 -7291.1458 293.5080 -8987.8387 -7323.8266 301.6423 323.6836 427.2424 30230.9553 23.7349 94.7230
ENERGY: 600000 2.1722 8.4084 5.1183 0.0000 -10581.0108 1474.3761 0.0000 0.0000 1745.5868 -7345.3491 301.9661 -9090.9359 -7333.9329 301.7164 549.6341 566.7078 29741.9203 53.8899 124.9546
ENERGY: 900000 1.5541 3.5845 3.8680 0.0000 -10546.0918 1429.9763 0.0000 0.0000 1680.0278 -7427.0811 290.6251 -9107.1089 -7340.8044 299.7922 213.0378 328.6573 29147.8709 116.5284 185.2876
ENERGY: 1200000 3.3721 10.0063 4.1412 0.0000 -10390.2941 1388.2280 0.0000 0.0000 1708.4429 -7276.1035 295.5406 -8984.5464 -7337.1608 299.4579 -64.7803 36.7326 29615.6488 15.5065 85.0950
ENERGY: 1500000 3.5073 13.3086 4.4830 0.0000 -10443.6951 1372.7442 0.0000 0.0000 1668.7636 -7380.8885 288.6765 -9049.6521 -7337.6559 298.9896 -240.2470 -237.2222 29946.2965 -3.9114 63.7068
TCL: Running FEP window  18: Lambda1 0.1499999999999997 Lambda2 0.09999999999999969 [dLambda -0.05 ]
TCL: Setting parameter firsttimestep to 0
TCL: Setting parameter alchLambda to 0.1499999999999997
Info: NONBONDED TABLE R-SQUARED SPACING: 0.0625
Info: NONBONDED TABLE SIZE: 705 POINTS
TCL: Setting parameter alchLambda2 to 0.09999999999999969
Info: NONBONDED TABLE R-SQUARED SPACING: 0.0625
Info: NONBONDED TABLE SIZE: 705 POINTS
TCL: Running for 1500000 steps
ETITLE: TS BOND ANGLE DIHED IMPRP ELECT VDW BOUNDARY MISC KINETIC TOTAL TEMP POTENTIAL TOTALAVG TEMPAVG PRESSURE GPRESSURE VOLUME PRESSAVG GPRESSAVG
ENERGY: 0 3.5073 13.3086 4.4830 0.0000 -10443.6945 1372.6397 0.0000 0.0000 1667.8858 -7381.8701 288.5247 -9049.7559 -7381.8701 288.5247 -338.7826 -241.6262 29946.2965 -338.7826 -241.6262
ENERGY: 300000 2.1082 9.2230 3.5409 0.0000 -10336.2037 1358.1713 0.0000 0.0000 1729.5336 -7233.6267 299.1890 -8963.1602 -7297.6664 296.1054 -337.9125 -291.1351 30216.4713 -429.3945 -352.1390
ENERGY: 600000 3.1683 7.1969 3.7669 0.0000 -10546.2322 1423.4950 0.0000 0.0000 1773.0359 -7335.5692 306.7144 -9108.6052 -7327.7403 297.6079 -175.2116 -128.2702 29683.9872 -302.3164 -228.4380
ENERGY: 900000 2.0179 10.5680 5.0249 0.0000 -10586.8285 1415.3961 0.0000 0.0000 1783.7468 -7370.0748 308.5673 -9153.8216 -7318.7899 300.1529 -224.1800 -142.2783 29595.1591 -190.7108 -122.6252
ENERGY: 1200000 3.3418 7.8330 4.4999 0.0000 -10483.8817 1392.2185 0.0000 0.0000 1674.8955 -7401.0931 289.7373 -9075.9885 -7319.5951 300.3351 -438.9003 -426.8252 30132.7951 -213.4182 -150.6109
ENERGY: 1500000 1.7664 11.3118 4.0293 0.0000 -10602.4238 1460.1755 0.0000 0.0000 1752.2851 -7372.8556 303.1248 -9125.1407 -7318.1991 300.0352 552.9466 579.3958 29048.8205 -187.9390 -131.1682
TCL: Running FEP window  19: Lambda1 0.09999999999999969 Lambda2 0.049999999999999684 [dLambda -0.05 ]
TCL: Setting parameter firsttimestep to 0
TCL: Setting parameter alchLambda to 0.09999999999999969
Info: NONBONDED TABLE R-SQUARED SPACING: 0.0625
Info: NONBONDED TABLE SIZE: 705 POINTS
TCL: Setting parameter alchLambda2 to 0.049999999999999684
Info: NONBONDED TABLE R-SQUARED SPACING: 0.0625
Info: NONBONDED TABLE SIZE: 705 POINTS
TCL: Running for 1500000 steps
ETITLE: TS BOND ANGLE DIHED IMPRP ELECT VDW BOUNDARY MISC KINETIC TOTAL TEMP POTENTIAL TOTALAVG TEMPAVG PRESSURE GPRESSURE VOLUME PRESSAVG GPRESSAVG
ENERGY: 0 1.7665 11.3118 4.0293 0.0000 -10602.4228 1460.1898 0.0000 0.0000 1751.4200 -7373.7053 302.9751 -9125.1253 -7373.7053 302.9751 500.7860 577.3360 29048.8205 500.7860 577.3360
ENERGY: 300000 4.5360 12.0315 3.6668 0.0000 -10421.4663 1282.3444 0.0000 0.0000 1712.0023 -7406.8853 296.1563 -9118.8876 -7343.1580 301.5503 -1344.1633 -1356.9904 29816.5469 -292.4785 -246.3651
ENERGY: 600000 5.8374 14.4620 8.6078 0.0000 -10433.4429 1340.0173 0.0000 0.0000 1701.3511 -7363.1672 294.3138 -9064.5184 -7344.2547 298.6343 -710.9205 -646.6737 29960.7327 -290.4199 -234.7445
ENERGY: 900000 0.3064 15.2884 4.3572 0.0000 -10526.3467 1351.1848 0.0000 0.0000 1725.0011 -7430.2089 298.4050 -9155.2100 -7349.5719 298.3627 -984.3495 -875.8021 30130.8062 -289.2902 -231.2481
ENERGY: 1200000 5.0061 8.1452 3.3736 0.0000 -10512.0999 1415.2503 0.0000 0.0000 1749.1420 -7331.1827 302.5811 -9080.3247 -7341.1004 300.0528 -151.5575 -31.3197 29607.8702 -157.2933 -95.1841
ENERGY: 1500000 1.2901 8.3045 3.0372 0.0000 -10578.9172 1459.5999 0.0000 0.0000 1718.1510 -7388.5345 297.2200 -9106.6855 -7343.1531 300.0837 164.6917 212.5041 29580.5352 -96.4246 -38.6234
TCL: Running FEP window  20: Lambda1 0.049999999999999684 Lambda2 0.0    [dLambda -0.049999999999999684]
TCL: Setting parameter firsttimestep to 0
TCL: Setting parameter alchLambda to 0.049999999999999684
Info: NONBONDED TABLE R-SQUARED SPACING: 0.0625
Info: NONBONDED TABLE SIZE: 705 POINTS
TCL: Setting parameter alchLambda2 to 0.0
Info: NONBONDED TABLE R-SQUARED SPACING: 0.0625
Info: NONBONDED TABLE SIZE: 705 POINTS
TCL: Running for 1500000 steps
ETITLE: TS BOND ANGLE DIHED IMPRP ELECT VDW BOUNDARY MISC KINETIC TOTAL TEMP POTENTIAL TOTALAVG TEMPAVG PRESSURE GPRESSURE VOLUME PRESSAVG GPRESSAVG
ENERGY: 0 1.2901 8.3044 3.0372 0.0000 -10578.9158 1459.4975 0.0000 0.0000 1717.3041 -7389.4824 297.0735 -9106.7865 -7389.4824 297.0735 120.4739 210.1920 29580.5352 120.4739 210.1920
ENERGY: 300000 4.4680 8.6535 4.8000 0.0000 -10440.9368 1398.6497 0.0000 0.0000 1711.9187 -7312.4469 296.1419 -9024.3656 -7350.2666 297.1891 -145.6845 -113.0890 29674.3865 187.0789 258.3789
ENERGY: 600000 3.5697 8.7916 4.9158 0.0000 -10570.3817 1495.5286 0.0000 0.0000 1647.4660 -7410.1100 284.9923 -9057.5760 -7343.5973 299.2375 537.0264 600.0874 29695.3660 150.0635 211.7394
ENERGY: 900000 2.2305 11.8289 5.4284 0.0000 -10411.9127 1333.9548 0.0000 0.0000 1790.9971 -7267.4729 309.8215 -9058.4700 -7332.5255 300.8855 -469.6083 -457.0688 29493.1316 95.8385 153.5846
ENERGY: 1200000 1.3844 10.1071 3.3031 0.0000 -10584.7640 1505.5638 0.0000 0.0000 1705.2646 -7359.1408 294.9908 -9064.4055 -7330.6213 300.6242 518.1498 519.7354 29807.5576 83.9164 138.0779
ENERGY: 1500000 1.3124 10.6911 4.9485 0.0000 -10437.6553 1371.0216 0.0000 0.0000 1745.2197 -7304.4620 301.9025 -9049.6817 -7326.2539 300.8159 -244.3133 -204.3575 29716.0046 71.4343 122.8328
TCL: Exiting due to exit command.
