Info: SIMULATION PARAMETERS:
Info: TIMESTEP               2
Info: NUMBER OF STEPS        0
Info: STEPS PER CYCLE        10
Info: PERIODIC CELL BASIS 1  29.9284 0 0
Info: PERIODIC CELL BASIS 2  0 32.3616 0
Info: PERIODIC CELL BASIS 3  0 0 31.4469
Info: PERIODIC CELL CENTER   0 0 0
Info: WRAPPING WATERS AROUND PERIODIC BOUNDARIES ON OUTPUT.
Info: WRAPPING ALL CLUSTERS AROUND PERIODIC BOUNDARIES ON OUTPUT.
Info: FIRST LDB TIMESTEP     50
Info: LAST LDB TIMESTEP     -1
Info: HOM BACKGROUND SCALING 1
Info: PME BACKGROUND SCALING 1
Info: MIN ATOMS PER PATCH    40
Info: EMPTY PATCH LOAD       40 ATOMS
Info: VELOCITY FILE          mobley_7754849_equil.vel
Info: CENTER OF MASS MOVING INITIALLY? NO
Info: DIELECTRIC             1
Info: EXCLUDE                SCALED ONE-FOUR
Info: 1-4 ELECTROSTATICS SCALED BY 0.833333
Info: MODIFIED 1-4 VDW PARAMETERS WILL BE USED
Info: DCD FILENAME           mobley_7754849_prod.dcd
Info: DCD FREQUENCY          100000
Info: DCD FIRST STEP         100000
Info: DCD FILE WILL CONTAIN UNIT CELL DATA
Info: XST FILENAME           mobley_7754849_prod.xst
Info: XST FREQUENCY          100000
Info: NO VELOCITY DCD OUTPUT
Info: NO FORCE DCD OUTPUT
Info: OUTPUT FILENAME        mobley_7754849_prod
Info: BINARY OUTPUT FILES WILL BE USED
Info: RESTART FILENAME       mobley_7754849_prod.restart
Info: RESTART FREQUENCY      100000
Info: BINARY RESTART FILES WILL BE USED
Info: CUTOFF                 9
Info: PAIRLIST DISTANCE      11
Info: PAIRLIST SHRINK RATE   0.01
Info: PAIRLIST GROW RATE     0.01
Info: PAIRLIST TRIGGER       0.3
Info: PAIRLISTS PER CYCLE    2
Info: PAIRLISTS ENABLED
Info: MARGIN                 2
Info: HYDROGEN GROUP CUTOFF  2.5
Info: PATCH DIMENSION        15.5
Info: ENERGY OUTPUT STEPS    100000
Info: ENERGY EVALUATION STEPS    100000
Info: OUTPUT ENERGY PRECISION 4
Info: CROSSTERM ENERGY INCLUDED IN DIHEDRAL
Info: TIMING OUTPUT STEPS    1000000
Info: PRESSURE OUTPUT STEPS  100000
Info: ALCHEMICAL FEP ON
Info: FEP CURRENT LAMBDA VALUE     1
Info: FEP COMPARISON LAMBDA VALUE  0.95
Info: FEP INTRA-ALCHEMICAL NON-BONDED INTERACTIONS WILL BE RETAINED
Info: FEP INTRA-ALCHEMICAL BONDED INTERACTIONS WILL BE RETAINED
Info: FEP VDW SHIFTING COEFFICIENT 5
Info: FEP ELEC. ACTIVE FOR ANNIHILATED PARTICLES BETWEEN LAMBDA = 0 AND LAMBDA = 0.5
Info: FEP ELEC. ACTIVE FOR EXNIHILATED PARTICLES BETWEEN LAMBDA = 0.5 AND LAMBDA = 1
Info: FEP VDW ACTIVE FOR ANNIHILATED PARTICLES BETWEEN LAMBDA = 0 AND LAMBDA = 1
Info: FEP VDW ACTIVE FOR EXNIHILATED PARTICLES BETWEEN LAMBDA = 0 AND LAMBDA = 1
Info: FEP BOND ACTIVE FOR ANNIHILATED PARTICLES BETWEEN LAMBDA = 1 AND LAMBDA = 1
Info: FEP BOND ACTIVE FOR EXNIHILATED PARTICLES BETWEEN LAMBDA = 0 AND LAMBDA = 0
Info: LANGEVIN DYNAMICS ACTIVE
Info: LANGEVIN TEMPERATURE   300
Info: LANGEVIN USING BBK INTEGRATOR
Info: LANGEVIN DAMPING COEFFICIENT IS 1 INVERSE PS
Info: LANGEVIN DYNAMICS APPLIED TO HYDROGENS
Info: LANGEVIN PISTON PRESSURE CONTROL ACTIVE
Info:        TARGET PRESSURE IS 1.01325 BAR
Info:     OSCILLATION PERIOD IS 50 FS
Info:             DECAY TIME IS 25 FS
Info:     PISTON TEMPERATURE IS 300 K
Info:       PRESSURE CONTROL IS GROUP-BASED
Info:    INITIAL STRAIN RATE IS 0.000202534 0.000202534 0.000202534
Info:       CELL FLUCTUATION IS ISOTROPIC
Info: PARTICLE MESH EWALD (PME) ACTIVE
Info: PME TOLERANCE               1e-06
Info: PME EWALD COEFFICIENT       0.348832
Info: PME INTERPOLATION ORDER     4
Info: PME GRID DIMENSIONS         32 36 32
Info: PME MAXIMUM GRID SPACING    1
Info: PME CALCULATION WILL BE PERFORMED ON GPU
Info: FULL ELECTROSTATIC EVALUATION FREQUENCY      2
Info: USING VERLET I (r-RESPA) MTS SCHEME.
Info: C1 SPLITTING OF LONG RANGE ELECTROSTATICS
Info: PLACING ATOMS IN PATCHES BY HYDROGEN GROUPS
Info: RIGID BONDS TO HYDROGEN : ALL
Info:         ERROR TOLERANCE : 1e-08
Info:          MAX ITERATIONS : 100
Info: RIGID WATER USING SETTLE ALGORITHM
Info: RANDOM NUMBER SEED     1744102269
Info: USE HYDROGEN BONDS?    NO
Info: Using AMBER format force field!
Info: AMBER PARM FILE        mobley_7754849.prmtop
Info: COORDINATE PDB         mobley_7754849.pdb
Info: Exclusions will be read from PARM file!
Info: SCNB (VDW SCALING)     2
Info: USING ARITHMETIC MEAN TO COMBINE L-J SIGMA PARAMETERS
Info: BINARY COORDINATES     mobley_7754849_equil.coor
Info: SUMMARY OF PARAMETERS:
Info: 11 BONDS
Info: 15 ANGLES
Info:   15 HARMONIC
Info:   0 COSINE-BASED
Info: 10 DIHEDRAL
Info: 0 IMPROPER
Info: 0 CROSSTERM
Info: 0 VDW
Info: 45 VDW_PAIRS
Info: 0 NBTHOLE_PAIRS
Info: To read alchdata from file: mobley_7754849.pdb
Info: To read alchflag data from column: 5
Info: STRUCTURE SUMMARY:
Info: 2909 ATOMS
Info: 2908 BONDS
Info: 72 ANGLES
Info: 92 DIHEDRALS
Info: 0 IMPROPERS
Info: 0 CROSSTERMS
Info: 3052 EXCLUSIONS
Info: 2890 RIGID BONDS
Info: ALCH: 0 ATOMS TO DISAPPEAR IN FINAL STATE
Info: ALCH: 41 ATOMS TO APPEAR IN FINAL STATE
Info: 5837 DEGREES OF FREEDOM
Info: 975 HYDROGEN GROUPS
Info: 4 ATOMS IN LARGEST HYDROGEN GROUP
Info: 975 MIGRATION GROUPS
Info: 4 ATOMS IN LARGEST MIGRATION GROUP
Info: TOTAL MASS = 17607.7 amu
Info: TOTAL CHARGE = 0.000399947 e
Info: MASS DENSITY = 0.96 g/cm^3
Info: ATOM DENSITY = 0.0955107 atoms/A^3
Info: ADDED 0 IMPLICIT EXCLUSIONS
Info: NONBONDED TABLE R-SQUARED SPACING: 0.0625
Info: NONBONDED TABLE SIZE: 705 POINTS
Info: REMOVING COM VELOCITY -0.0425599 0.138501 0.279502
Info: Use 3D box decompostion in PME FFT.
Info: Updated CUDA force table with 4096 elements.
Info: Updated CUDA LJ table with 9 x 9 elements.
Info: Found 39 unique exclusion lists needing 188 bytes
TCL: Running for 1500000 steps
ETITLE: TS BOND ANGLE DIHED IMPRP ELECT VDW BOUNDARY MISC KINETIC TOTAL TEMP POTENTIAL TOTALAVG TEMPAVG PRESSURE GPRESSURE VOLUME PRESSAVG GPRESSAVG
ENERGY: 0 5.7748 23.2686 42.0820 0.0000 -10519.8207 1333.5160 0.0000 0.0000 1704.4215 -7410.7578 293.8852 -9115.1793 -7410.7578 293.8852 -550.8706 -480.3796 30457.3219 -550.8706 -480.3796
ENERGY: 300000 5.4873 27.4256 44.9679 0.0000 -10532.8978 1346.3312 0.0000 0.0000 1706.6999 -7401.9859 294.2780 -9108.6857 -7376.9460 298.7200 -291.4634 -192.9586 29808.6345 -392.3733 -348.8556
ENERGY: 600000 5.6061 23.3679 51.3299 0.0000 -10375.0262 1345.7187 0.0000 0.0000 1763.1617 -7185.8418 304.0135 -8949.0035 -7349.2786 299.2820 138.0374 140.6999 30154.3641 -200.7226 -173.6129
ENERGY: 900000 3.3457 24.6031 46.8442 0.0000 -10647.3129 1436.9763 0.0000 0.0000 1813.6329 -7321.9107 312.7160 -9135.5436 -7347.9287 301.6214 548.2281 586.1097 29982.0765 -97.1678 -62.2521
ENERGY: 1200000 8.7143 26.0117 41.4027 0.0000 -10709.0782 1494.8368 0.0000 0.0000 1769.5307 -7368.5820 305.1117 -9138.1127 -7346.0495 301.6049 1061.8491 1108.5216 29488.3491 82.3659 113.1738
ENERGY: 1500000 5.5624 31.4266 42.3930 0.0000 -10579.2334 1347.7521 0.0000 0.0000 1741.9461 -7410.1531 300.3554 -9152.0992 -7356.5685 300.4162 -441.1675 -393.0581 30011.2897 -43.8998 -11.0867
TCL: Running FEP window   2: Lambda1 0.95   Lambda2 0.8999999999999999 [dLambda -0.050000000000000044]
TCL: Setting parameter firsttimestep to 0
TCL: Setting parameter alchLambda to 0.95
Info: NONBONDED TABLE R-SQUARED SPACING: 0.0625
Info: NONBONDED TABLE SIZE: 705 POINTS
TCL: Setting parameter alchLambda2 to 0.8999999999999999
Info: NONBONDED TABLE R-SQUARED SPACING: 0.0625
Info: NONBONDED TABLE SIZE: 705 POINTS
TCL: Running for 1500000 steps
ETITLE: TS BOND ANGLE DIHED IMPRP ELECT VDW BOUNDARY MISC KINETIC TOTAL TEMP POTENTIAL TOTALAVG TEMPAVG PRESSURE GPRESSURE VOLUME PRESSAVG GPRESSAVG
ENERGY: 0 5.5624 31.4266 42.3930 0.0000 -10576.3203 1347.8304 0.0000 0.0000 1741.1077 -7408.0001 300.2108 -9149.1078 -7408.0001 300.2108 -496.8923 -420.4836 30011.2897 -496.8923 -420.4836
ENERGY: 300000 5.3017 18.0197 47.2467 0.0000 -10603.9655 1437.5267 0.0000 0.0000 1735.2391 -7360.6316 299.1989 -9095.8707 -7347.8862 303.6641 180.4505 336.0264 30295.0911 -432.7548 -370.2933
ENERGY: 600000 8.3871 24.5256 49.0479 0.0000 -10590.4691 1409.0041 0.0000 0.0000 1737.0128 -7362.4914 299.5048 -9099.5043 -7345.1058 303.7704 313.2940 406.8205 29944.7848 -208.6707 -140.5597
ENERGY: 900000 6.9948 17.4102 47.2907 0.0000 -10475.6374 1352.3842 0.0000 0.0000 1749.5681 -7301.9894 301.6696 -9051.5574 -7332.3428 303.3285 -191.0000 -131.2114 30527.0801 -209.0376 -147.4924
ENERGY: 1200000 7.3079 25.0234 43.0270 0.0000 -10589.7609 1399.2166 0.0000 0.0000 1730.4568 -7384.7292 298.3743 -9115.1860 -7338.7812 303.8494 254.6360 322.5205 30033.8543 -126.7518 -71.2450
ENERGY: 1500000 9.4145 20.5241 46.7797 0.0000 -10410.3907 1289.8083 0.0000 0.0000 1724.2686 -7319.5955 297.3073 -9043.8641 -7347.5565 301.8686 -798.8253 -750.0259 30543.1325 -122.6332 -72.1093
TCL: Running FEP window   3: Lambda1 0.8999999999999999 Lambda2 0.8499999999999999 [dLambda -0.050000000000000044]
TCL: Setting parameter firsttimestep to 0
TCL: Setting parameter alchLambda to 0.8999999999999999
Info: NONBONDED TABLE R-SQUARED SPACING: 0.0625
Info: NONBONDED TABLE SIZE: 705 POINTS
TCL: Setting parameter alchLambda2 to 0.8499999999999999
Info: NONBONDED TABLE R-SQUARED SPACING: 0.0625
Info: NONBONDED TABLE SIZE: 705 POINTS
TCL: Running for 1500000 steps
ETITLE: TS BOND ANGLE DIHED IMPRP ELECT VDW BOUNDARY MISC KINETIC TOTAL TEMP POTENTIAL TOTALAVG TEMPAVG PRESSURE GPRESSURE VOLUME PRESSAVG GPRESSAVG
ENERGY: 0 9.4145 20.5241 46.7797 0.0000 -10407.6832 1290.4953 0.0000 0.0000 1723.3916 -7317.0779 297.1561 -9040.4696 -7317.0779 297.1561 -828.6808 -762.1562 30543.1325 -828.6808 -762.1562
ENERGY: 300000 4.5014 20.6276 41.3488 0.0000 -10605.8505 1381.3891 0.0000 0.0000 1714.8831 -7443.1005 295.6890 -9157.9836 -7355.4027 299.9410 -323.2881 -239.6890 30038.8665 -332.1276 -264.7896
ENERGY: 600000 4.1999 22.9430 47.2472 0.0000 -10482.8635 1341.6277 0.0000 0.0000 1760.2195 -7306.6263 303.5062 -9066.8458 -7372.5489 299.4202 -385.2964 -347.0477 30246.2792 -207.6174 -146.5567
ENERGY: 900000 5.0492 18.6571 48.3727 0.0000 -10521.1527 1365.3459 0.0000 0.0000 1779.2324 -7304.4956 306.7845 -9083.7279 -7363.9935 299.4174 -0.8765 46.7428 29919.2124 -165.0309 -109.0336
ENERGY: 1200000 2.6921 25.3122 42.5836 0.0000 -10637.3734 1411.5803 0.0000 0.0000 1722.6585 -7432.5467 297.0297 -9155.2052 -7349.9731 300.5229 13.4557 -8.6216 30244.1394 -130.7940 -77.9716
ENERGY: 1500000 5.3406 19.0683 46.5437 0.0000 -10495.4801 1367.7732 0.0000 0.0000 1732.1175 -7324.6368 298.6607 -9056.7542 -7347.0035 300.1553 91.7123 144.0211 29937.8346 -73.0210 -16.6311
TCL: Running FEP window   4: Lambda1 0.8499999999999999 Lambda2 0.7999999999999998 [dLambda -0.050000000000000044]
TCL: Setting parameter firsttimestep to 0
TCL: Setting parameter alchLambda to 0.8499999999999999
Info: NONBONDED TABLE R-SQUARED SPACING: 0.0625
Info: NONBONDED TABLE SIZE: 705 POINTS
TCL: Setting parameter alchLambda2 to 0.7999999999999998
Info: NONBONDED TABLE R-SQUARED SPACING: 0.0625
Info: NONBONDED TABLE SIZE: 705 POINTS
TCL: Running for 1500000 steps
ETITLE: TS BOND ANGLE DIHED IMPRP ELECT VDW BOUNDARY MISC KINETIC TOTAL TEMP POTENTIAL TOTALAVG TEMPAVG PRESSURE GPRESSURE VOLUME PRESSAVG GPRESSAVG
ENERGY: 0 5.3406 19.0683 46.5437 0.0000 -10493.7538 1368.4380 0.0000 0.0000 1731.2273 -7323.1358 298.5072 -9054.3631 -7323.1358 298.5072 30.7359 125.2860 29937.8346 30.7359 125.2860
ENERGY: 300000 7.6535 20.8032 42.7636 0.0000 -10404.8816 1279.3542 0.0000 0.0000 1716.0077 -7338.2994 295.8829 -9054.3071 -7330.3700 299.4355 -663.8875 -630.6139 29996.5681 -203.0972 -169.3994
ENERGY: 600000 8.3107 21.1372 47.4067 0.0000 -10686.7326 1512.0519 0.0000 0.0000 1696.3760 -7401.4502 292.4979 -9097.8261 -7358.0677 299.6099 737.6192 854.7592 29994.5052 -84.1826 -40.5551
ENERGY: 900000 8.1463 23.4890 41.2556 0.0000 -10631.5880 1445.4665 0.0000 0.0000 1719.2279 -7394.0027 296.4382 -9113.2306 -7362.0719 298.0079 499.3446 566.9136 29759.7609 -38.3915 16.8791
ENERGY: 1200000 7.4758 16.1284 43.8265 0.0000 -10602.8196 1391.1196 0.0000 0.0000 1722.7933 -7421.4760 297.0529 -9144.2692 -7366.4741 298.0176 423.5688 475.7938 29357.5570 -56.1108 3.6902
ENERGY: 1500000 4.1246 21.8732 42.5292 0.0000 -10443.5318 1336.3748 0.0000 0.0000 1724.9674 -7313.6624 297.4278 -9038.6299 -7356.6795 298.5109 -491.2953 -399.1039 30249.9670 -65.5950 -6.8867
TCL: Running FEP window   5: Lambda1 0.7999999999999998 Lambda2 0.7499999999999998 [dLambda -0.050000000000000044]
TCL: Setting parameter firsttimestep to 0
TCL: Setting parameter alchLambda to 0.7999999999999998
Info: NONBONDED TABLE R-SQUARED SPACING: 0.0625
Info: NONBONDED TABLE SIZE: 705 POINTS
TCL: Setting parameter alchLambda2 to 0.7499999999999998
Info: NONBONDED TABLE R-SQUARED SPACING: 0.0625
Info: NONBONDED TABLE SIZE: 705 POINTS
TCL: Running for 1500000 steps
ETITLE: TS BOND ANGLE DIHED IMPRP ELECT VDW BOUNDARY MISC KINETIC TOTAL TEMP POTENTIAL TOTALAVG TEMPAVG PRESSURE GPRESSURE VOLUME PRESSAVG GPRESSAVG
ENERGY: 0 4.1246 21.8732 42.5292 0.0000 -10440.7627 1336.5692 0.0000 0.0000 1724.1379 -7311.5285 297.2848 -9035.6664 -7311.5285 297.2848 -496.7046 -416.5356 30249.9670 -496.7046 -416.5356
ENERGY: 300000 8.7341 21.6491 43.1210 0.0000 -10640.0472 1435.4565 0.0000 0.0000 1774.7959 -7356.2906 306.0195 -9131.0866 -7353.6196 301.0159 396.4915 442.4146 29658.3532 -161.3192 -76.2481
ENERGY: 600000 4.5174 19.6172 48.1069 0.0000 -10552.1579 1397.8190 0.0000 0.0000 1730.1339 -7351.9635 298.3187 -9082.0975 -7364.6822 300.9676 -157.7467 -119.1735 30068.1157 -261.6016 -191.7684
ENERGY: 900000 5.3732 20.3582 43.1659 0.0000 -10530.1707 1393.2054 0.0000 0.0000 1713.6985 -7354.3695 295.4848 -9068.0680 -7349.2953 300.7165 5.0560 123.7151 29991.3132 -250.8085 -167.9116
ENERGY: 1200000 5.2096 17.9072 48.8410 0.0000 -10537.3495 1336.2988 0.0000 0.0000 1736.6147 -7392.4782 299.4361 -9129.0929 -7350.3076 300.4458 -679.8272 -657.6661 30018.6580 -161.8729 -92.2967
ENERGY: 1500000 5.2405 22.2878 47.2284 0.0000 -10621.3753 1376.2410 0.0000 0.0000 1748.3566 -7422.0211 301.4607 -9170.3777 -7350.9007 301.1918 -73.2638 -7.0705 29516.9359 -183.2580 -118.2610
TCL: Running FEP window   6: Lambda1 0.7499999999999998 Lambda2 0.6999999999999997 [dLambda -0.050000000000000044]
TCL: Setting parameter firsttimestep to 0
TCL: Setting parameter alchLambda to 0.7499999999999998
Info: NONBONDED TABLE R-SQUARED SPACING: 0.0625
Info: NONBONDED TABLE SIZE: 705 POINTS
TCL: Setting parameter alchLambda2 to 0.6999999999999997
Info: NONBONDED TABLE R-SQUARED SPACING: 0.0625
Info: NONBONDED TABLE SIZE: 705 POINTS
TCL: Running for 1500000 steps
ETITLE: TS BOND ANGLE DIHED IMPRP ELECT VDW BOUNDARY MISC KINETIC TOTAL TEMP POTENTIAL TOTALAVG TEMPAVG PRESSURE GPRESSURE VOLUME PRESSAVG GPRESSAVG
ENERGY: 0 5.2405 22.2878 47.2284 0.0000 -10618.3898 1375.6414 0.0000 0.0000 1747.4984 -7420.4933 301.3127 -9167.9918 -7420.4933 301.3127 -94.7508 -30.2850 29516.9359 -94.7508 -30.2850
ENERGY: 300000 3.6806 18.6640 50.5644 0.0000 -10661.6939 1423.6087 0.0000 0.0000 1722.1135 -7443.0628 296.9357 -9165.1763 -7399.7285 298.2583 73.5870 93.3157 29802.2359 -211.6488 -167.9846
ENERGY: 600000 4.7857 23.6398 43.6334 0.0000 -10541.4978 1439.2403 0.0000 0.0000 1800.1149 -7230.0838 310.3851 -9030.1987 -7383.2220 299.5782 705.8851 825.5900 29847.6826 -54.6724 0.3983
ENERGY: 900000 7.0067 22.2765 44.7340 0.0000 -10498.5428 1358.5185 0.0000 0.0000 1726.4351 -7339.5720 297.6809 -9066.0071 -7367.6457 299.2686 -405.8772 -389.0002 30438.3266 -177.6012 -123.5770
ENERGY: 1200000 4.3422 17.9125 45.6195 0.0000 -10591.0234 1379.7131 0.0000 0.0000 1714.5851 -7428.8510 295.6377 -9143.4361 -7362.7734 299.1189 -147.9825 -42.2729 29581.6425 -99.5035 -43.1704
ENERGY: 1500000 6.6539 20.8033 42.2654 0.0000 -10507.5956 1340.9257 0.0000 0.0000 1731.9137 -7365.0336 298.6255 -9096.9473 -7356.4713 299.6721 -429.0734 -273.4604 29970.0745 -166.6402 -106.8713
TCL: Running FEP window   7: Lambda1 0.6999999999999997 Lambda2 0.6499999999999997 [dLambda -0.050000000000000044]
TCL: Setting parameter firsttimestep to 0
TCL: Setting parameter alchLambda to 0.6999999999999997
Info: NONBONDED TABLE R-SQUARED SPACING: 0.0625
Info: NONBONDED TABLE SIZE: 705 POINTS
TCL: Setting parameter alchLambda2 to 0.6499999999999997
Info: NONBONDED TABLE R-SQUARED SPACING: 0.0625
Info: NONBONDED TABLE SIZE: 705 POINTS
TCL: Running for 1500000 steps
ETITLE: TS BOND ANGLE DIHED IMPRP ELECT VDW BOUNDARY MISC KINETIC TOTAL TEMP POTENTIAL TOTALAVG TEMPAVG PRESSURE GPRESSURE VOLUME PRESSAVG GPRESSAVG
ENERGY: 0 6.6539 20.8033 42.2654 0.0000 -10504.8638 1339.9882 0.0000 0.0000 1731.0929 -7364.0601 298.4840 -9095.1530 -7364.0601 298.4840 -388.5157 -299.5096 29970.0745 -388.5157 -299.5096
ENERGY: 300000 4.4462 23.6895 46.6136 0.0000 -10613.6305 1383.8699 0.0000 0.0000 1721.8239 -7433.1874 296.8858 -9155.0113 -7356.7626 299.6661 -85.0161 -5.2105 29587.3483 -394.4674 -329.8436
ENERGY: 600000 6.8190 27.4021 44.7463 0.0000 -10633.9296 1446.9336 0.0000 0.0000 1758.3886 -7349.6399 303.1905 -9108.0285 -7369.5264 300.8251 242.0280 371.8757 29703.8306 -112.0248 -45.3145
ENERGY: 900000 4.0792 22.6626 45.0702 0.0000 -10487.6852 1314.4315 0.0000 0.0000 1720.1738 -7381.2680 296.6013 -9101.4417 -7375.8205 300.1349 -739.8502 -644.3543 29934.5055 -168.8450 -100.6894
ENERGY: 1200000 4.9633 19.1154 45.4428 0.0000 -10474.7708 1343.4729 0.0000 0.0000 1735.3264 -7326.4500 299.2140 -9061.7764 -7362.6886 300.3623 -619.0518 -518.5023 30258.3925 -129.5808 -58.7129
ENERGY: 1500000 4.8518 26.8459 43.5594 0.0000 -10496.2830 1339.6787 0.0000 0.0000 1706.5668 -7374.7804 294.2551 -9081.3472 -7361.9154 300.2478 -420.0858 -341.7456 30173.9703 -103.9219 -32.9622
TCL: Running FEP window   8: Lambda1 0.6499999999999997 Lambda2 0.5999999999999996 [dLambda -0.050000000000000044]
TCL: Setting parameter firsttimestep to 0
TCL: Setting parameter alchLambda to 0.6499999999999997
Info: NONBONDED TABLE R-SQUARED SPACING: 0.0625
Info: NONBONDED TABLE SIZE: 705 POINTS
TCL: Setting parameter alchLambda2 to 0.5999999999999996
Info: NONBONDED TABLE R-SQUARED SPACING: 0.0625
Info: NONBONDED TABLE SIZE: 705 POINTS
TCL: Running for 1500000 steps
ETITLE: TS BOND ANGLE DIHED IMPRP ELECT VDW BOUNDARY MISC KINETIC TOTAL TEMP POTENTIAL TOTALAVG TEMPAVG PRESSURE GPRESSURE VOLUME PRESSAVG GPRESSAVG
ENERGY: 0 4.8518 26.8458 43.5594 0.0000 -10495.1938 1340.0145 0.0000 0.0000 1705.7192 -7374.2031 294.1089 -9079.9222 -7374.2031 294.1089 -424.5505 -349.3784 30173.9703 -424.5505 -349.3784
ENERGY: 300000 10.0676 21.4096 45.4039 0.0000 -10534.7443 1390.5360 0.0000 0.0000 1748.6477 -7318.6795 301.5109 -9067.3273 -7362.7143 297.3963 -269.2220 -214.4075 30282.1992 -443.7914 -365.2597
ENERGY: 600000 5.4509 19.6170 45.9810 0.0000 -10517.1034 1360.7418 0.0000 0.0000 1717.4223 -7367.8904 296.1269 -9085.3127 -7358.4620 300.3048 -300.8017 -236.0615 30171.9892 -289.7762 -213.5528
ENERGY: 900000 6.1525 18.6602 40.8759 0.0000 -10716.3741 1447.8891 0.0000 0.0000 1767.0967 -7435.6998 304.6920 -9202.7965 -7377.8419 300.3812 343.0891 374.0959 29274.8874 -172.0362 -106.2713
ENERGY: 1200000 8.9905 23.3501 47.4040 0.0000 -10574.2917 1429.8453 0.0000 0.0000 1726.9011 -7337.8006 297.7612 -9064.7017 -7372.3719 299.8151 -157.9032 -91.6169 30701.3359 -260.5255 -187.6611
ENERGY: 1500000 7.1519 21.0106 40.1409 0.0000 -10515.3061 1401.4611 0.0000 0.0000 1745.7692 -7299.7724 301.0146 -9045.5416 -7369.3151 299.7974 74.3024 96.8271 30265.6104 -161.7633 -94.4310
TCL: Running FEP window   9: Lambda1 0.5999999999999996 Lambda2 0.5499999999999996 [dLambda -0.050000000000000044]
TCL: Setting parameter firsttimestep to 0
TCL: Setting parameter alchLambda to 0.5999999999999996
Info: NONBONDED TABLE R-SQUARED SPACING: 0.0625
Info: NONBONDED TABLE SIZE: 705 POINTS
TCL: Setting parameter alchLambda2 to 0.5499999999999996
Info: NONBONDED TABLE R-SQUARED SPACING: 0.0625
Info: NONBONDED TABLE SIZE: 705 POINTS
TCL: Running for 1500000 steps
ETITLE: TS BOND ANGLE DIHED IMPRP ELECT VDW BOUNDARY MISC KINETIC TOTAL TEMP POTENTIAL TOTALAVG TEMPAVG PRESSURE GPRESSURE VOLUME PRESSAVG GPRESSAVG
ENERGY: 0 7.1519 21.0106 40.1409 0.0000 -10514.0657 1402.1443 0.0000 0.0000 1744.9214 -7298.6966 300.8684 -9043.6180 -7298.6966 300.8684 5.0037 88.0480 30265.6104 5.0037 88.0480
ENERGY: 300000 11.1230 27.8189 41.2531 0.0000 -10563.1118 1348.5770 0.0000 0.0000 1798.4665 -7335.8734 310.1009 -9134.3399 -7334.0749 300.5838 -135.4385 -47.6092 29666.9512 -223.8675 -155.3990
ENERGY: 600000 4.7268 23.5148 44.5463 0.0000 -10551.0225 1419.5426 0.0000 0.0000 1746.6478 -7312.0442 301.1661 -9058.6920 -7340.8547 299.8042 231.6601 250.0265 29673.4077 -130.3886 -52.3135
ENERGY: 900000 4.5121 20.9026 41.2657 0.0000 -10573.5980 1369.8307 0.0000 0.0000 1745.0537 -7392.0332 300.8912 -9137.0869 -7352.4323 300.8356 -329.6424 -268.6259 30085.5671 -24.8631 51.1405
ENERGY: 1200000 4.0534 23.2192 45.3383 0.0000 -10524.3291 1394.1845 0.0000 0.0000 1710.4987 -7347.0351 294.9330 -9057.5338 -7349.7926 299.8748 -119.1239 -77.5186 30056.1692 90.0761 167.8217
ENERGY: 1500000 5.3730 21.6073 45.3640 0.0000 -10552.7600 1431.7375 0.0000 0.0000 1758.3616 -7290.3166 303.1858 -9048.6782 -7342.1424 300.5025 661.6160 613.3385 29801.1120 108.8360 172.5061
TCL: Running FEP window  10: Lambda1 0.5499999999999996 Lambda2 0.4999999999999996 [dLambda -0.04999999999999999]
TCL: Setting parameter firsttimestep to 0
TCL: Setting parameter alchLambda to 0.5499999999999996
Info: NONBONDED TABLE R-SQUARED SPACING: 0.0625
Info: NONBONDED TABLE SIZE: 705 POINTS
TCL: Setting parameter alchLambda2 to 0.4999999999999996
Info: NONBONDED TABLE R-SQUARED SPACING: 0.0625
Info: NONBONDED TABLE SIZE: 705 POINTS
TCL: Running for 1500000 steps
ETITLE: TS BOND ANGLE DIHED IMPRP ELECT VDW BOUNDARY MISC KINETIC TOTAL TEMP POTENTIAL TOTALAVG TEMPAVG PRESSURE GPRESSURE VOLUME PRESSAVG GPRESSAVG
ENERGY: 0 5.3730 21.6073 45.3640 0.0000 -10552.1324 1432.4648 0.0000 0.0000 1757.4795 -7289.8437 303.0337 -9047.3233 -7289.8437 303.0337 548.7387 604.4793 29801.1120 548.7387 604.4793
ENERGY: 300000 6.4379 26.0303 46.5157 0.0000 -10411.7365 1327.3345 0.0000 0.0000 1733.4214 -7271.9967 298.8855 -9005.4181 -7319.3997 296.0980 -479.0955 -411.8071 29945.3173 -98.6661 -42.9181
ENERGY: 600000 7.4113 22.3238 48.8495 0.0000 -10656.4949 1464.4085 0.0000 0.0000 1717.8626 -7395.6392 296.2028 -9113.5018 -7318.8262 297.7520 418.2806 481.9908 29985.4236 -25.1778 32.7295
ENERGY: 900000 5.1895 21.9206 42.5701 0.0000 -10523.0816 1363.6541 0.0000 0.0000 1720.5508 -7369.1966 296.6663 -9089.7474 -7332.9966 297.0408 -540.0303 -450.5948 30134.6301 -52.9501 13.2762
ENERGY: 1200000 6.0232 23.3405 50.2362 0.0000 -10627.9885 1420.6466 0.0000 0.0000 1778.6989 -7349.0430 306.6925 -9127.7420 -7339.9907 299.0735 57.4753 97.6159 30044.1311 -3.6795 61.4705
ENERGY: 1500000 5.9865 23.7060 43.5774 0.0000 -10487.8299 1416.5503 0.0000 0.0000 1705.9053 -7292.1044 294.1410 -8998.0097 -7335.2453 298.6803 472.3256 503.1386 30025.9020 2.4995 62.5094
TCL: Running FEP window  11: Lambda1 0.4999999999999996 Lambda2 0.4499999999999996 [dLambda -0.04999999999999999]
TCL: Setting parameter firsttimestep to 0
TCL: Setting parameter alchLambda to 0.4999999999999996
Info: NONBONDED TABLE R-SQUARED SPACING: 0.0625
Info: NONBONDED TABLE SIZE: 705 POINTS
TCL: Setting parameter alchLambda2 to 0.4499999999999996
Info: NONBONDED TABLE R-SQUARED SPACING: 0.0625
Info: NONBONDED TABLE SIZE: 705 POINTS
TCL: Running for 1500000 steps
ETITLE: TS BOND ANGLE DIHED IMPRP ELECT VDW BOUNDARY MISC KINETIC TOTAL TEMP POTENTIAL TOTALAVG TEMPAVG PRESSURE GPRESSURE VOLUME PRESSAVG GPRESSAVG
ENERGY: 0 5.9865 23.7060 43.5774 0.0000 -10486.7609 1417.1824 0.0000 0.0000 1705.0540 -7291.2547 293.9942 -8996.3087 -7291.2547 293.9942 421.2756 495.0817 30025.9020 421.2756 495.0817
ENERGY: 300000 3.5039 23.1529 43.5508 0.0000 -10539.9126 1396.9365 0.0000 0.0000 1763.1429 -7309.6257 304.0102 -9072.7685 -7325.2040 300.0067 -147.0155 -112.6449 30291.1314 31.1119 113.0249
ENERGY: 600000 6.2684 21.7535 48.7556 0.0000 -10578.8927 1416.2994 0.0000 0.0000 1706.5703 -7379.2455 294.2557 -9085.8158 -7338.7383 299.3417 -73.0021 18.5793 30119.9787 -243.2007 -161.8757
ENERGY: 900000 5.2435 18.1877 45.5261 0.0000 -10526.6542 1365.5469 0.0000 0.0000 1693.5842 -7398.5658 292.0166 -9092.1500 -7348.5119 298.9866 -193.3261 -97.5989 29709.3833 -57.2367 16.1646
ENERGY: 1200000 6.6107 18.9761 49.5968 0.0000 -10478.4755 1387.8378 0.0000 0.0000 1740.6314 -7274.8227 300.1287 -9015.4541 -7340.0226 298.7991 75.5031 85.8101 29920.4144 -77.7310 -11.7808
ENERGY: 1500000 6.0371 21.1435 45.4163 0.0000 -10466.3177 1370.9666 0.0000 0.0000 1746.0451 -7276.7091 301.0621 -9022.7542 -7341.4482 298.0306 -120.9972 -55.5016 30237.7846 -37.2461 32.5429
TCL: Running FEP window  12: Lambda1 0.4499999999999996 Lambda2 0.39999999999999963 [dLambda -0.04999999999999999]
TCL: Setting parameter firsttimestep to 0
TCL: Setting parameter alchLambda to 0.4499999999999996
Info: NONBONDED TABLE R-SQUARED SPACING: 0.0625
Info: NONBONDED TABLE SIZE: 705 POINTS
TCL: Setting parameter alchLambda2 to 0.39999999999999963
Info: NONBONDED TABLE R-SQUARED SPACING: 0.0625
Info: NONBONDED TABLE SIZE: 705 POINTS
TCL: Running for 1500000 steps
ETITLE: TS BOND ANGLE DIHED IMPRP ELECT VDW BOUNDARY MISC KINETIC TOTAL TEMP POTENTIAL TOTALAVG TEMPAVG PRESSURE GPRESSURE VOLUME PRESSAVG GPRESSAVG
ENERGY: 0 6.0371 21.1435 45.4163 0.0000 -10466.3185 1371.8986 0.0000 0.0000 1745.1843 -7276.6386 300.9137 -9021.8229 -7276.6386 300.9137 -148.9533 -56.3115 30237.7846 -148.9533 -56.3115
ENERGY: 300000 4.4221 19.0357 40.5838 0.0000 -10471.4689 1349.7180 0.0000 0.0000 1730.8338 -7326.8755 298.4393 -9057.7093 -7309.5298 297.6268 -362.2147 -350.7752 29961.0619 -705.5491 -646.5319
ENERGY: 600000 7.6979 17.3534 44.6680 0.0000 -10548.5732 1368.7662 0.0000 0.0000 1754.4378 -7355.6500 302.5092 -9110.0877 -7308.2277 300.0107 -719.2528 -687.8981 30052.1333 -489.5242 -435.4114
ENERGY: 900000 5.2962 19.1686 44.4522 0.0000 -10486.2691 1359.8640 0.0000 0.0000 1738.5909 -7318.8972 299.7769 -9057.4881 -7318.2775 300.1305 -302.6272 -317.5329 30332.2519 -351.2460 -299.2446
ENERGY: 1200000 1.9322 18.2475 43.6277 0.0000 -10515.7627 1366.8947 0.0000 0.0000 1722.8433 -7362.2173 297.0616 -9085.0605 -7325.4703 301.2751 -184.1921 -142.3111 30013.7608 -218.0680 -167.0759
ENERGY: 1500000 2.8211 21.6226 45.3681 0.0000 -10552.9225 1400.9939 0.0000 0.0000 1778.8098 -7303.3070 306.7116 -9082.1169 -7329.3739 301.9572 91.1508 83.6365 29615.0408 -172.7626 -125.9060
TCL: Running FEP window  13: Lambda1 0.39999999999999963 Lambda2 0.34999999999999964 [dLambda -0.04999999999999999]
TCL: Setting parameter firsttimestep to 0
TCL: Setting parameter alchLambda to 0.39999999999999963
Info: NONBONDED TABLE R-SQUARED SPACING: 0.0625
Info: NONBONDED TABLE SIZE: 705 POINTS
TCL: Setting parameter alchLambda2 to 0.34999999999999964
Info: NONBONDED TABLE R-SQUARED SPACING: 0.0625
Info: NONBONDED TABLE SIZE: 705 POINTS
TCL: Running for 1500000 steps
ETITLE: TS BOND ANGLE DIHED IMPRP ELECT VDW BOUNDARY MISC KINETIC TOTAL TEMP POTENTIAL TOTALAVG TEMPAVG PRESSURE GPRESSURE VOLUME PRESSAVG GPRESSAVG
ENERGY: 0 2.8211 21.6226 45.3681 0.0000 -10552.9234 1401.8433 0.0000 0.0000 1777.9325 -7303.3357 306.5603 -9081.2683 -7303.3357 306.5603 12.5058 77.2542 29615.0408 12.5058 77.2542
ENERGY: 300000 4.0516 26.5025 45.0422 0.0000 -10656.5476 1446.0071 0.0000 0.0000 1719.6842 -7415.2600 296.5169 -9134.9442 -7314.8093 300.5596 482.8257 500.5796 29371.1181 207.0110 244.5167
ENERGY: 600000 3.5012 25.4716 47.3889 0.0000 -10594.7043 1458.2303 0.0000 0.0000 1767.6041 -7292.5081 304.7795 -9060.1122 -7319.7591 301.2038 587.4651 592.7165 29851.7176 198.0263 230.3215
ENERGY: 900000 4.3346 20.1548 49.7148 0.0000 -10560.9228 1410.0175 0.0000 0.0000 1747.4805 -7329.2205 301.3096 -9076.7010 -7324.1182 300.3888 17.6689 107.8215 29747.9862 179.1123 226.1569
ENERGY: 1200000 3.8762 20.1518 46.3373 0.0000 -10414.9517 1316.2785 0.0000 0.0000 1794.1150 -7234.1930 309.3506 -9028.3080 -7315.8530 300.5441 -821.7512 -719.2300 30444.5187 71.3683 118.1898
ENERGY: 1500000 4.0495 16.2945 47.1575 0.0000 -10630.8319 1438.1392 0.0000 0.0000 1768.0300 -7357.1612 304.8529 -9125.1912 -7316.4916 300.6722 192.0088 212.0354 29762.8550 107.5800 159.6405
TCL: Running FEP window  14: Lambda1 0.34999999999999964 Lambda2 0.29999999999999966 [dLambda -0.04999999999999999]
TCL: Setting parameter firsttimestep to 0
TCL: Setting parameter alchLambda to 0.34999999999999964
Info: NONBONDED TABLE R-SQUARED SPACING: 0.0625
Info: NONBONDED TABLE SIZE: 705 POINTS
TCL: Setting parameter alchLambda2 to 0.29999999999999966
Info: NONBONDED TABLE R-SQUARED SPACING: 0.0625
Info: NONBONDED TABLE SIZE: 705 POINTS
TCL: Running for 1500000 steps
ETITLE: TS BOND ANGLE DIHED IMPRP ELECT VDW BOUNDARY MISC KINETIC TOTAL TEMP POTENTIAL TOTALAVG TEMPAVG PRESSURE GPRESSURE VOLUME PRESSAVG GPRESSAVG
ENERGY: 0 4.0495 16.2945 47.1575 0.0000 -10630.8337 1438.7549 0.0000 0.0000 1767.1756 -7357.4016 304.7056 -9124.5772 -7357.4016 304.7056 122.4533 204.5358 29762.8550 122.4533 204.5358
ENERGY: 300000 3.1702 18.9714 44.4470 0.0000 -10692.4425 1534.5769 0.0000 0.0000 1733.0799 -7358.1971 298.8266 -9091.2770 -7365.7415 296.0311 1434.9449 1507.8347 29324.6354 71.2356 146.1826
ENERGY: 600000 6.6686 18.9504 45.6240 0.0000 -10455.8149 1335.5589 0.0000 0.0000 1775.6543 -7273.3586 306.1675 -9049.0129 -7354.5901 298.2889 -676.8766 -616.4317 29985.5670 -180.0997 -110.1791
ENERGY: 900000 5.9153 21.6155 45.1894 0.0000 -10713.8505 1518.2774 0.0000 0.0000 1760.9077 -7361.9451 303.6248 -9122.8529 -7356.5035 298.6389 795.4762 819.8545 29862.3694 -87.0139 -31.4174
ENERGY: 1200000 7.0826 20.9630 48.3991 0.0000 -10632.3721 1486.8718 0.0000 0.0000 1751.3725 -7317.6831 301.9807 -9069.0556 -7353.3435 298.4364 825.6651 899.4857 29803.0183 -21.0069 40.6538
ENERGY: 1500000 5.8124 28.2262 49.6240 0.0000 -10386.2186 1317.5185 0.0000 0.0000 1736.3637 -7248.6739 299.3928 -8985.0375 -7344.2923 298.7788 -492.3288 -387.6253 30069.1959 -159.4434 -91.2155
TCL: Running FEP window  15: Lambda1 0.29999999999999966 Lambda2 0.24999999999999967 [dLambda -0.04999999999999999]
TCL: Setting parameter firsttimestep to 0
TCL: Setting parameter alchLambda to 0.29999999999999966
Info: NONBONDED TABLE R-SQUARED SPACING: 0.0625
Info: NONBONDED TABLE SIZE: 705 POINTS
TCL: Setting parameter alchLambda2 to 0.24999999999999967
Info: NONBONDED TABLE R-SQUARED SPACING: 0.0625
Info: NONBONDED TABLE SIZE: 705 POINTS
TCL: Running for 1500000 steps
ETITLE: TS BOND ANGLE DIHED IMPRP ELECT VDW BOUNDARY MISC KINETIC TOTAL TEMP POTENTIAL TOTALAVG TEMPAVG PRESSURE GPRESSURE VOLUME PRESSAVG GPRESSAVG
ENERGY: 0 5.8124 28.2262 49.6240 0.0000 -10386.2188 1318.3040 0.0000 0.0000 1735.4955 -7248.7568 299.2431 -8984.2523 -7248.7568 299.2431 -479.7413 -391.2973 30069.1959 -479.7413 -391.2973
ENERGY: 300000 3.7771 26.0319 46.0405 0.0000 -10474.1726 1320.6733 0.0000 0.0000 1683.1395 -7394.5102 290.2156 -9077.6498 -7298.1971 298.6313 -889.4117 -782.1707 30261.5957 -263.7070 -190.7579
ENERGY: 600000 3.5373 23.9905 44.2235 0.0000 -10624.8407 1529.3369 0.0000 0.0000 1762.1253 -7261.6271 303.8348 -9023.7524 -7296.2107 301.3961 1677.6399 1777.1825 29108.3135 168.0075 243.0574
ENERGY: 900000 6.3280 20.4364 42.5196 0.0000 -10501.7355 1390.5491 0.0000 0.0000 1737.5513 -7304.3511 299.5976 -9041.9024 -7303.4028 301.0113 -150.6926 -57.7287 29738.9067 165.3773 236.9265
ENERGY: 1200000 5.8669 23.8767 51.0188 0.0000 -10337.9399 1284.8836 0.0000 0.0000 1771.1884 -7201.1054 305.3975 -8972.2938 -7289.1686 301.0976 -851.4932 -799.2909 30150.9847 22.2869 90.1029
ENERGY: 1500000 5.5425 21.1042 43.9946 0.0000 -10722.1748 1538.9979 0.0000 0.0000 1724.2751 -7388.2607 297.3084 -9112.5358 -7305.3922 300.5073 931.9444 1027.9960 29708.1711 46.5837 115.5501
TCL: Running FEP window  16: Lambda1 0.24999999999999967 Lambda2 0.19999999999999968 [dLambda -0.04999999999999999]
TCL: Setting parameter firsttimestep to 0
TCL: Setting parameter alchLambda to 0.24999999999999967
Info: NONBONDED TABLE R-SQUARED SPACING: 0.0625
Info: NONBONDED TABLE SIZE: 705 POINTS
TCL: Setting parameter alchLambda2 to 0.19999999999999968
Info: NONBONDED TABLE R-SQUARED SPACING: 0.0625
Info: NONBONDED TABLE SIZE: 705 POINTS
TCL: Running for 1500000 steps
ETITLE: TS BOND ANGLE DIHED IMPRP ELECT VDW BOUNDARY MISC KINETIC TOTAL TEMP POTENTIAL TOTALAVG TEMPAVG PRESSURE GPRESSURE VOLUME PRESSAVG GPRESSAVG
ENERGY: 0 5.5425 21.1042 43.9946 0.0000 -10722.1768 1539.4041 0.0000 0.0000 1723.4283 -7388.7031 297.1624 -9112.1315 -7388.7031 297.1624 932.6269 1019.9384 29708.1711 932.6269 1019.9384
ENERGY: 300000 5.7423 21.2184 47.9939 0.0000 -10478.4038 1298.7157 0.0000 0.0000 1683.9147 -7420.8188 290.3493 -9104.7335 -7372.3731 297.4413 -1110.3882 -997.7179 29839.2906 86.0752 150.1727
ENERGY: 600000 7.5650 18.0963 47.8934 0.0000 -10659.1182 1470.6374 0.0000 0.0000 1732.2864 -7382.6397 298.6898 -9114.9261 -7373.9715 298.0615 453.9253 563.2626 29467.7188 63.4338 119.9028
ENERGY: 900000 3.8284 23.7472 46.4101 0.0000 -10520.3972 1355.8576 0.0000 0.0000 1736.3582 -7354.1958 299.3919 -9090.5540 -7362.2722 296.9609 -613.1799 -553.0104 29663.9613 -116.5740 -58.5476
ENERGY: 1200000 3.6442 21.1480 46.5838 0.0000 -10602.0797 1465.8739 0.0000 0.0000 1704.1764 -7360.6533 293.8429 -9064.8297 -7355.2229 297.6501 496.1209 555.4166 29553.0026 -165.0674 -103.5683
ENERGY: 1500000 3.4726 26.8704 50.0078 0.0000 -10530.5644 1360.3395 0.0000 0.0000 1685.1056 -7404.7683 290.5546 -9089.8740 -7351.8229 297.0373 -614.8384 -503.0401 30034.2468 -140.3402 -77.7408
TCL: Running FEP window  17: Lambda1 0.19999999999999968 Lambda2 0.1499999999999997 [dLambda -0.04999999999999999]
TCL: Setting parameter firsttimestep to 0
TCL: Setting parameter alchLambda to 0.19999999999999968
Info: NONBONDED TABLE R-SQUARED SPACING: 0.0625
Info: NONBONDED TABLE SIZE: 705 POINTS
TCL: Setting parameter alchLambda2 to 0.1499999999999997
Info: NONBONDED TABLE R-SQUARED SPACING: 0.0625
Info: NONBONDED TABLE SIZE: 705 POINTS
TCL: Running for 1500000 steps
ETITLE: TS BOND ANGLE DIHED IMPRP ELECT VDW BOUNDARY MISC KINETIC TOTAL TEMP POTENTIAL TOTALAVG TEMPAVG PRESSURE GPRESSURE VOLUME PRESSAVG GPRESSAVG
ENERGY: 0 3.4726 26.8704 50.0078 0.0000 -10530.5634 1360.9228 0.0000 0.0000 1684.2053 -7405.0845 290.3994 -9089.2898 -7405.0845 290.3994 -586.8251 -509.3079 30034.2468 -586.8251 -509.3079
ENERGY: 300000 6.6244 24.4125 41.5191 0.0000 -10678.1717 1516.9939 0.0000 0.0000 1727.7690 -7360.8527 297.9109 -9088.6217 -7363.8032 298.5127 735.3365 804.3213 29655.9606 1.5829 58.7827
ENERGY: 600000 5.3613 25.4004 47.5033 0.0000 -10452.7056 1359.0384 0.0000 0.0000 1694.8903 -7320.5119 292.2418 -9015.4022 -7348.1372 298.2640 -123.7045 -67.0829 29969.1457 59.3586 120.3638
ENERGY: 900000 11.6443 19.8823 48.3851 0.0000 -10582.7327 1384.7998 0.0000 0.0000 1696.8920 -7421.1292 292.5869 -9118.0212 -7355.8240 297.9570 -270.5609 -200.9055 29422.2193 16.5215 68.9101
ENERGY: 1200000 6.5865 17.2859 48.5452 0.0000 -10604.3873 1365.4037 0.0000 0.0000 1697.6010 -7468.9651 292.7092 -9166.5661 -7365.2151 298.1244 -763.5176 -615.1207 29298.5391 -65.2429 -7.0857
ENERGY: 1500000 8.1234 21.7638 43.8022 0.0000 -10529.7346 1364.2567 0.0000 0.0000 1765.3739 -7326.4145 304.3949 -9091.7884 -7354.2251 299.4014 -562.0147 -478.5744 30089.8889 -9.7777 49.0918
TCL: Running FEP window  18: Lambda1 0.1499999999999997 Lambda2 0.09999999999999969 [dLambda -0.05 ]
TCL: Setting parameter firsttimestep to 0
TCL: Setting parameter alchLambda to 0.1499999999999997
Info: NONBONDED TABLE R-SQUARED SPACING: 0.0625
Info: NONBONDED TABLE SIZE: 705 POINTS
TCL: Setting parameter alchLambda2 to 0.09999999999999969
Info: NONBONDED TABLE R-SQUARED SPACING: 0.0625
Info: NONBONDED TABLE SIZE: 705 POINTS
TCL: Running for 1500000 steps
ETITLE: TS BOND ANGLE DIHED IMPRP ELECT VDW BOUNDARY MISC KINETIC TOTAL TEMP POTENTIAL TOTALAVG TEMPAVG PRESSURE GPRESSURE VOLUME PRESSAVG GPRESSAVG
ENERGY: 0 8.1234 21.7638 43.8022 0.0000 -10529.7334 1363.0294 0.0000 0.0000 1764.4868 -7328.5278 304.2420 -9093.0146 -7328.5278 304.2420 -570.8402 -488.2066 30089.8889 -570.8402 -488.2066
ENERGY: 300000 5.2850 20.6497 42.8489 0.0000 -10555.6257 1355.3160 0.0000 0.0000 1768.4597 -7363.0664 304.9270 -9131.5261 -7338.2027 300.6983 -641.9613 -571.8021 29782.6026 -593.4687 -522.4266
ENERGY: 600000 5.2958 25.3315 45.3678 0.0000 -10628.3094 1454.3236 0.0000 0.0000 1761.1316 -7336.8591 303.6634 -9097.9907 -7336.4711 300.4581 651.7539 713.9034 29265.6573 -352.4560 -295.9587
ENERGY: 900000 4.2924 23.4634 43.1723 0.0000 -10642.2765 1504.0115 0.0000 0.0000 1752.5841 -7314.7529 302.1896 -9067.3370 -7337.6836 300.2006 870.3333 997.2035 29239.3432 -205.0098 -141.7796
ENERGY: 1200000 5.3865 23.1227 47.8683 0.0000 -10671.7102 1463.8247 0.0000 0.0000 1694.0914 -7437.4166 292.1040 -9131.5081 -7348.2021 298.8033 220.8214 271.5961 29567.7846 -42.9019 29.0654
ENERGY: 1500000 4.7403 22.9002 43.4406 0.0000 -10595.8860 1399.9904 0.0000 0.0000 1691.6362 -7433.1783 291.6807 -9124.8145 -7363.1324 298.3518 -197.6396 -143.9606 29394.9335 -109.7908 -39.6527
TCL: Running FEP window  19: Lambda1 0.09999999999999969 Lambda2 0.049999999999999684 [dLambda -0.05 ]
TCL: Setting parameter firsttimestep to 0
TCL: Setting parameter alchLambda to 0.09999999999999969
Info: NONBONDED TABLE R-SQUARED SPACING: 0.0625
Info: NONBONDED TABLE SIZE: 705 POINTS
TCL: Setting parameter alchLambda2 to 0.049999999999999684
Info: NONBONDED TABLE R-SQUARED SPACING: 0.0625
Info: NONBONDED TABLE SIZE: 705 POINTS
TCL: Running for 1500000 steps
ETITLE: TS BOND ANGLE DIHED IMPRP ELECT VDW BOUNDARY MISC KINETIC TOTAL TEMP POTENTIAL TOTALAVG TEMPAVG PRESSURE GPRESSURE VOLUME PRESSAVG GPRESSAVG
ENERGY: 0 4.7403 22.9002 43.4406 0.0000 -10595.8876 1400.6364 0.0000 0.0000 1690.7708 -7433.3994 291.5315 -9124.1702 -7433.3994 291.5315 -237.1659 -147.9549 29394.9335 -237.1659 -147.9549
ENERGY: 300000 6.0651 20.1144 47.9273 0.0000 -10577.9631 1444.1353 0.0000 0.0000 1691.4641 -7368.2570 291.6510 -9059.7211 -7337.1432 299.0135 355.0120 327.8914 29543.1026 293.3976 328.0953
ENERGY: 600000 7.3479 24.3609 44.1335 0.0000 -10605.7305 1463.2029 0.0000 0.0000 1746.6228 -7320.0625 301.1618 -9066.6853 -7336.5870 299.2060 317.4762 378.9725 29859.5081 171.0970 219.6917
ENERGY: 900000 6.5448 26.9604 44.8718 0.0000 -10471.8348 1366.6579 0.0000 0.0000 1715.2543 -7311.5455 295.7530 -9026.7998 -7334.9403 298.5112 -205.2277 -161.4447 29716.4059 133.9082 189.8118
ENERGY: 1200000 9.7754 20.8214 45.1191 0.0000 -10507.5847 1375.2071 0.0000 0.0000 1686.6748 -7369.9869 290.8252 -9056.6617 -7326.2195 298.4406 -493.9005 -373.1689 29615.9344 142.9858 206.5052
ENERGY: 1500000 7.3410 15.6484 43.9485 0.0000 -10640.7781 1415.4212 0.0000 0.0000 1682.6978 -7475.7212 290.1395 -9158.4191 -7332.2338 298.1796 127.2139 168.5349 29279.6530 97.4948 152.5971
TCL: Running FEP window  20: Lambda1 0.049999999999999684 Lambda2 0.0    [dLambda -0.049999999999999684]
TCL: Setting parameter firsttimestep to 0
TCL: Setting parameter alchLambda to 0.049999999999999684
Info: NONBONDED TABLE R-SQUARED SPACING: 0.0625
Info: NONBONDED TABLE SIZE: 705 POINTS
TCL: Setting parameter alchLambda2 to 0.0
Info: NONBONDED TABLE R-SQUARED SPACING: 0.0625
Info: NONBONDED TABLE SIZE: 705 POINTS
TCL: Running for 1500000 steps
ETITLE: TS BOND ANGLE DIHED IMPRP ELECT VDW BOUNDARY MISC KINETIC TOTAL TEMP POTENTIAL TOTALAVG TEMPAVG PRESSURE GPRESSURE VOLUME PRESSAVG GPRESSAVG
ENERGY: 0 7.3410 15.6484 43.9485 0.0000 -10640.7784 1415.6720 0.0000 0.0000 1681.8491 -7476.3194 289.9931 -9158.1685 -7476.3194 289.9931 77.6358 166.1681 29279.6530 77.6358 166.1681
ENERGY: 300000 3.6718 22.5641 46.0891 0.0000 -10572.8540 1385.0006 0.0000 0.0000 1731.0219 -7384.5065 298.4718 -9115.5284 -7396.0758 295.7123 -349.3314 -304.0136 29700.2957 -194.3453 -139.7177
ENERGY: 600000 5.7207 19.5002 44.6625 0.0000 -10329.7109 1283.8737 0.0000 0.0000 1692.0569 -7283.8969 291.7532 -8975.9538 -7357.9973 297.4677 -631.1101 -529.4401 29500.2831 -148.3657 -76.1829
ENERGY: 900000 7.7189 36.7060 43.2298 0.0000 -10486.6691 1367.4019 0.0000 0.0000 1811.1951 -7220.4174 312.2956 -9031.6125 -7331.7608 300.7457 -344.2306 -288.2830 29976.9567 -213.5954 -149.0783
ENERGY: 1200000 3.3703 23.1908 44.8925 0.0000 -10612.7106 1430.0515 0.0000 0.0000 1704.3112 -7406.8943 293.8662 -9111.2055 -7326.4277 300.7949 -183.9862 -109.2798 30069.0008 -233.9031 -172.1982
ENERGY: 1500000 5.1344 20.7837 44.0546 0.0000 -10546.2907 1382.9489 0.0000 0.0000 1736.3783 -7356.9908 299.3953 -9093.3691 -7336.0587 299.9482 -275.1030 -238.5450 29605.9735 -208.0476 -149.4768
TCL: Exiting due to exit command.
