Info: SIMULATION PARAMETERS:
Info: TIMESTEP               2
Info: NUMBER OF STEPS        0
Info: STEPS PER CYCLE        10
Info: PERIODIC CELL BASIS 1  33.0443 0 0
Info: PERIODIC CELL BASIS 2  0 30.2862 0
Info: PERIODIC CELL BASIS 3  0 0 30.6575
Info: PERIODIC CELL CENTER   0 0 0
Info: WRAPPING WATERS AROUND PERIODIC BOUNDARIES ON OUTPUT.
Info: WRAPPING ALL CLUSTERS AROUND PERIODIC BOUNDARIES ON OUTPUT.
Info: FIRST LDB TIMESTEP     50
Info: LAST LDB TIMESTEP     -1
Info: HOM BACKGROUND SCALING 1
Info: PME BACKGROUND SCALING 1
Info: MIN ATOMS PER PATCH    40
Info: EMPTY PATCH LOAD       40 ATOMS
Info: VELOCITY FILE          mobley_1944394_equil.vel
Info: CENTER OF MASS MOVING INITIALLY? NO
Info: DIELECTRIC             1
Info: EXCLUDE                SCALED ONE-FOUR
Info: 1-4 ELECTROSTATICS SCALED BY 0.833333
Info: MODIFIED 1-4 VDW PARAMETERS WILL BE USED
Info: DCD FILENAME           mobley_1944394_prod.dcd
Info: DCD FREQUENCY          100000
Info: DCD FIRST STEP         100000
Info: DCD FILE WILL CONTAIN UNIT CELL DATA
Info: XST FILENAME           mobley_1944394_prod.xst
Info: XST FREQUENCY          100000
Info: NO VELOCITY DCD OUTPUT
Info: NO FORCE DCD OUTPUT
Info: OUTPUT FILENAME        mobley_1944394_prod
Info: BINARY OUTPUT FILES WILL BE USED
Info: RESTART FILENAME       mobley_1944394_prod.restart
Info: RESTART FREQUENCY      100000
Info: BINARY RESTART FILES WILL BE USED
Info: CUTOFF                 9
Info: PAIRLIST DISTANCE      11
Info: PAIRLIST SHRINK RATE   0.01
Info: PAIRLIST GROW RATE     0.01
Info: PAIRLIST TRIGGER       0.3
Info: PAIRLISTS PER CYCLE    2
Info: PAIRLISTS ENABLED
Info: MARGIN                 2
Info: HYDROGEN GROUP CUTOFF  2.5
Info: PATCH DIMENSION        15.5
Info: ENERGY OUTPUT STEPS    100000
Info: ENERGY EVALUATION STEPS    100000
Info: OUTPUT ENERGY PRECISION 4
Info: CROSSTERM ENERGY INCLUDED IN DIHEDRAL
Info: TIMING OUTPUT STEPS    1000000
Info: PRESSURE OUTPUT STEPS  100000
Info: ALCHEMICAL FEP ON
Info: FEP CURRENT LAMBDA VALUE     0
Info: FEP COMPARISON LAMBDA VALUE  0.05
Info: FEP INTRA-ALCHEMICAL NON-BONDED INTERACTIONS WILL BE RETAINED
Info: FEP INTRA-ALCHEMICAL BONDED INTERACTIONS WILL BE RETAINED
Info: FEP VDW SHIFTING COEFFICIENT 5
Info: FEP ELEC. ACTIVE FOR ANNIHILATED PARTICLES BETWEEN LAMBDA = 0 AND LAMBDA = 0.5
Info: FEP ELEC. ACTIVE FOR EXNIHILATED PARTICLES BETWEEN LAMBDA = 0.5 AND LAMBDA = 1
Info: FEP VDW ACTIVE FOR ANNIHILATED PARTICLES BETWEEN LAMBDA = 0 AND LAMBDA = 1
Info: FEP VDW ACTIVE FOR EXNIHILATED PARTICLES BETWEEN LAMBDA = 0 AND LAMBDA = 1
Info: FEP BOND ACTIVE FOR ANNIHILATED PARTICLES BETWEEN LAMBDA = 1 AND LAMBDA = 1
Info: FEP BOND ACTIVE FOR EXNIHILATED PARTICLES BETWEEN LAMBDA = 0 AND LAMBDA = 0
Info: LANGEVIN DYNAMICS ACTIVE
Info: LANGEVIN TEMPERATURE   300
Info: LANGEVIN USING BBK INTEGRATOR
Info: LANGEVIN DAMPING COEFFICIENT IS 1 INVERSE PS
Info: LANGEVIN DYNAMICS APPLIED TO HYDROGENS
Info: LANGEVIN PISTON PRESSURE CONTROL ACTIVE
Info:        TARGET PRESSURE IS 1.01325 BAR
Info:     OSCILLATION PERIOD IS 50 FS
Info:             DECAY TIME IS 25 FS
Info:     PISTON TEMPERATURE IS 300 K
Info:       PRESSURE CONTROL IS GROUP-BASED
Info:    INITIAL STRAIN RATE IS 0.000240399 0.000240399 0.000240399
Info:       CELL FLUCTUATION IS ISOTROPIC
Info: PARTICLE MESH EWALD (PME) ACTIVE
Info: PME TOLERANCE               1e-06
Info: PME EWALD COEFFICIENT       0.348832
Info: PME INTERPOLATION ORDER     4
Info: PME GRID DIMENSIONS         36 32 32
Info: PME MAXIMUM GRID SPACING    1
Info: PME CALCULATION WILL BE PERFORMED ON GPU
Info: FULL ELECTROSTATIC EVALUATION FREQUENCY      2
Info: USING VERLET I (r-RESPA) MTS SCHEME.
Info: C1 SPLITTING OF LONG RANGE ELECTROSTATICS
Info: PLACING ATOMS IN PATCHES BY HYDROGEN GROUPS
Info: RIGID BONDS TO HYDROGEN : ALL
Info:         ERROR TOLERANCE : 1e-08
Info:          MAX ITERATIONS : 100
Info: RIGID WATER USING SETTLE ALGORITHM
Info: RANDOM NUMBER SEED     1744084094
Info: USE HYDROGEN BONDS?    NO
Info: Using AMBER format force field!
Info: AMBER PARM FILE        mobley_1944394.prmtop
Info: COORDINATE PDB         mobley_1944394.pdb
Info: Exclusions will be read from PARM file!
Info: SCNB (VDW SCALING)     2
Info: USING ARITHMETIC MEAN TO COMBINE L-J SIGMA PARAMETERS
Info: BINARY COORDINATES     mobley_1944394_equil.coor
Info: SUMMARY OF PARAMETERS:
Info: 9 BONDS
Info: 14 ANGLES
Info:   14 HARMONIC
Info:   0 COSINE-BASED
Info: 11 DIHEDRAL
Info: 0 IMPROPER
Info: 0 CROSSTERM
Info: 0 VDW
Info: 36 VDW_PAIRS
Info: 0 NBTHOLE_PAIRS
Info: To read alchdata from file: mobley_1944394.pdb
Info: To read alchflag data from column: 5
Info: STRUCTURE SUMMARY:
Info: 2950 ATOMS
Info: 2951 BONDS
Info: 70 ANGLES
Info: 110 DIHEDRALS
Info: 0 IMPROPERS
Info: 0 CROSSTERMS
Info: 3108 EXCLUSIONS
Info: 2931 RIGID BONDS
Info: ALCH: 0 ATOMS TO DISAPPEAR IN FINAL STATE
Info: ALCH: 40 ATOMS TO APPEAR IN FINAL STATE
Info: 5919 DEGREES OF FREEDOM
Info: 989 HYDROGEN GROUPS
Info: 4 ATOMS IN LARGEST HYDROGEN GROUP
Info: 989 MIGRATION GROUPS
Info: 4 ATOMS IN LARGEST MIGRATION GROUP
Info: TOTAL MASS = 17730.9 amu
Info: TOTAL CHARGE = 0.000400033 e
Info: MASS DENSITY = 0.959647 g/cm^3
Info: ATOM DENSITY = 0.0961489 atoms/A^3
Info: ADDED 0 IMPLICIT EXCLUSIONS
Info: NONBONDED TABLE R-SQUARED SPACING: 0.0625
Info: NONBONDED TABLE SIZE: 705 POINTS
Info: REMOVING COM VELOCITY -0.0543862 0.00208589 -0.0101543
Info: Use 3D box decompostion in PME FFT.
Info: Updated CUDA force table with 4096 elements.
Info: Updated CUDA LJ table with 8 x 8 elements.
Info: Found 35 unique exclusion lists needing 192 bytes
TCL: Running for 1500000 steps
ETITLE: TS BOND ANGLE DIHED IMPRP ELECT VDW BOUNDARY MISC KINETIC TOTAL TEMP POTENTIAL TOTALAVG TEMPAVG PRESSURE GPRESSURE VOLUME PRESSAVG GPRESSAVG
ENERGY: 0 11.1126 17.5505 8.4286 0.0000 -10497.1566 1362.6393 0.0000 0.0000 1817.3227 -7280.1029 309.0111 -9097.4256 -7280.1029 309.0111 -1112.2578 -1011.4420 30681.5755 -1112.2578 -1011.4420
ENERGY: 300000 3.9308 16.4255 9.7152 0.0000 -10623.2568 1421.6809 0.0000 0.0000 1831.0547 -7340.4497 311.3461 -9171.5045 -7337.9081 305.1833 -98.5813 -74.6234 29845.7099 -425.3691 -367.1976
ENERGY: 600000 5.3694 14.6629 10.1077 0.0000 -10659.2367 1489.5190 0.0000 0.0000 1771.9171 -7367.6606 301.2905 -9139.5777 -7353.4430 300.7629 438.5375 492.7114 30106.6652 -186.0075 -136.3058
ENERGY: 900000 8.0776 9.7469 9.8093 0.0000 -10606.5555 1447.2987 0.0000 0.0000 1760.5141 -7371.1088 299.3516 -9131.6230 -7370.8657 299.2396 161.6759 210.9067 29625.0948 -99.3255 -35.3874
ENERGY: 1200000 6.1216 16.4769 9.9741 0.0000 -10646.0309 1534.2934 0.0000 0.0000 1757.2444 -7321.9204 298.7956 -9079.1649 -7363.4126 299.9820 494.5122 556.2484 30232.7400 17.4273 84.4371
ENERGY: 1500000 12.3188 10.7886 9.1670 0.0000 -10461.4414 1370.9438 0.0000 0.0000 1797.5964 -7260.6269 305.6569 -9058.2233 -7350.4496 301.1258 -886.6098 -816.2930 30156.8961 -123.4175 -47.1130
TCL: Running FEP window   2: Lambda1 0.05   Lambda2 0.1    [dLambda 0.05  ]
TCL: Setting parameter firsttimestep to 0
TCL: Setting parameter alchLambda to 0.05
Info: NONBONDED TABLE R-SQUARED SPACING: 0.0625
Info: NONBONDED TABLE SIZE: 705 POINTS
TCL: Setting parameter alchLambda2 to 0.1
Info: NONBONDED TABLE R-SQUARED SPACING: 0.0625
Info: NONBONDED TABLE SIZE: 705 POINTS
TCL: Running for 1500000 steps
ETITLE: TS BOND ANGLE DIHED IMPRP ELECT VDW BOUNDARY MISC KINETIC TOTAL TEMP POTENTIAL TOTALAVG TEMPAVG PRESSURE GPRESSURE VOLUME PRESSAVG GPRESSAVG
ENERGY: 0 12.3188 10.7886 9.1670 0.0000 -10461.4423 1378.0444 0.0000 0.0000 1796.6986 -7254.4249 305.5043 -9051.1235 -7254.4249 305.5043 -858.6319 -795.7196 30156.8961 -858.6319 -795.7196
ENERGY: 300000 7.8617 14.7481 9.4124 0.0000 -10607.5612 1529.9653 0.0000 0.0000 1707.7302 -7337.8436 290.3764 -9045.5738 -7321.6310 297.1195 702.7355 784.7545 30092.2363 -112.7245 -34.8997
ENERGY: 600000 7.4178 10.1045 10.2671 0.0000 -10670.1677 1448.4991 0.0000 0.0000 1755.5226 -7438.3566 298.5028 -9193.8792 -7360.6571 297.3781 -246.5167 -158.6453 29843.7451 -71.8895 2.0023
ENERGY: 900000 4.7435 17.2964 10.0313 0.0000 -10600.6347 1454.5475 0.0000 0.0000 1773.7664 -7340.2497 301.6049 -9114.0161 -7337.1167 298.4445 139.7798 260.3834 29672.3526 -8.0819 77.2686
ENERGY: 1200000 6.7046 12.8767 11.1054 0.0000 -10585.2610 1413.4711 0.0000 0.0000 1753.1799 -7387.9232 298.1045 -9141.1031 -7347.2775 297.9059 -157.4355 -138.4375 29756.5825 -7.1621 69.0828
ENERGY: 1500000 4.5599 15.4396 7.9913 0.0000 -10564.9052 1423.8714 0.0000 0.0000 1787.7441 -7325.2990 303.9817 -9113.0431 -7344.6649 299.2286 -135.6386 -61.9372 30001.3712 -3.7529 75.1888
TCL: Running FEP window   3: Lambda1 0.1    Lambda2 0.15000000000000002 [dLambda 0.05000000000000002]
TCL: Setting parameter firsttimestep to 0
TCL: Setting parameter alchLambda to 0.1
Info: NONBONDED TABLE R-SQUARED SPACING: 0.0625
Info: NONBONDED TABLE SIZE: 705 POINTS
TCL: Setting parameter alchLambda2 to 0.15000000000000002
Info: NONBONDED TABLE R-SQUARED SPACING: 0.0625
Info: NONBONDED TABLE SIZE: 705 POINTS
TCL: Running for 1500000 steps
ETITLE: TS BOND ANGLE DIHED IMPRP ELECT VDW BOUNDARY MISC KINETIC TOTAL TEMP POTENTIAL TOTALAVG TEMPAVG PRESSURE GPRESSURE VOLUME PRESSAVG GPRESSAVG
ENERGY: 0 4.5600 15.4396 7.9913 0.0000 -10564.9040 1430.9108 0.0000 0.0000 1786.8725 -7319.1299 303.8335 -9106.0024 -7319.1299 303.8335 -116.6932 -36.1217 30001.3712 -116.6932 -36.1217
ENERGY: 300000 9.7977 17.1272 7.9880 0.0000 -10708.3458 1448.4530 0.0000 0.0000 1752.7707 -7472.2091 298.0349 -9224.9798 -7346.1115 303.0172 -599.5435 -523.6560 29860.7221 -55.2157 2.9574
ENERGY: 600000 7.1499 14.0476 7.9344 0.0000 -10563.3400 1459.2662 0.0000 0.0000 1790.1178 -7284.8242 304.3853 -9074.9420 -7303.4574 303.9170 532.5092 601.9407 29695.3752 73.2706 133.2389
ENERGY: 900000 7.3103 18.4798 7.7676 0.0000 -10435.3833 1371.9258 0.0000 0.0000 1769.8833 -7260.0164 300.9447 -9029.8997 -7313.0462 302.8639 -477.6853 -331.7342 30209.6549 -8.2362 54.9839
ENERGY: 1200000 8.6060 14.8971 12.2217 0.0000 -10633.2854 1471.3314 0.0000 0.0000 1803.4456 -7322.7836 306.6515 -9126.2292 -7324.4720 302.4923 312.6652 349.9072 29671.4145 112.2453 168.3444
ENERGY: 1500000 6.1183 14.4583 9.0868 0.0000 -10628.7434 1454.7919 0.0000 0.0000 1751.6096 -7392.6786 297.8375 -9144.2882 -7321.5980 301.2440 -175.5475 -137.2271 30163.3773 68.2521 131.5725
TCL: Running FEP window   4: Lambda1 0.15000000000000002 Lambda2 0.2    [dLambda 0.04999999999999999]
TCL: Setting parameter firsttimestep to 0
TCL: Setting parameter alchLambda to 0.15000000000000002
Info: NONBONDED TABLE R-SQUARED SPACING: 0.0625
Info: NONBONDED TABLE SIZE: 705 POINTS
TCL: Setting parameter alchLambda2 to 0.2
Info: NONBONDED TABLE R-SQUARED SPACING: 0.0625
Info: NONBONDED TABLE SIZE: 705 POINTS
TCL: Running for 1500000 steps
ETITLE: TS BOND ANGLE DIHED IMPRP ELECT VDW BOUNDARY MISC KINETIC TOTAL TEMP POTENTIAL TOTALAVG TEMPAVG PRESSURE GPRESSURE VOLUME PRESSAVG GPRESSAVG
ENERGY: 0 6.1183 14.4582 9.0868 0.0000 -10628.7440 1457.7354 0.0000 0.0000 1750.6891 -7390.6562 297.6810 -9141.3454 -7390.6562 297.6810 -187.0563 -116.9625 30163.3773 -187.0563 -116.9625
ENERGY: 300000 7.1553 13.4555 7.0502 0.0000 -10382.7123 1269.6537 0.0000 0.0000 1689.3621 -7396.0354 287.2531 -9085.3975 -7393.0584 294.4462 -1372.9219 -1304.0782 29852.3063 -234.1299 -172.8900
ENERGY: 600000 6.2661 15.5940 10.1701 0.0000 -10499.7418 1400.0422 0.0000 0.0000 1761.5414 -7306.1280 299.5263 -9067.6694 -7371.2794 296.6090 123.9659 122.3982 30091.4822 36.9143 88.9466
ENERGY: 900000 7.1811 14.7531 11.7532 0.0000 -10438.2896 1292.9987 0.0000 0.0000 1771.9267 -7339.6767 301.2921 -9111.6034 -7360.4287 296.8076 -1471.4355 -1363.8351 30351.2254 -228.0274 -168.5931
ENERGY: 1200000 4.5404 17.4634 8.3708 0.0000 -10584.4926 1470.8228 0.0000 0.0000 1832.7642 -7250.5310 311.6367 -9083.2952 -7330.0065 299.6501 862.4712 871.3589 29217.3394 -145.5876 -84.1295
ENERGY: 1500000 8.6144 15.8411 9.8405 0.0000 -10533.0913 1380.7923 0.0000 0.0000 1746.8365 -7371.1664 297.0259 -9118.0029 -7336.5829 299.7053 -618.3867 -549.9361 30610.0990 -160.3195 -100.6796
TCL: Running FEP window   5: Lambda1 0.2    Lambda2 0.25   [dLambda 0.04999999999999999]
TCL: Setting parameter firsttimestep to 0
TCL: Setting parameter alchLambda to 0.2
Info: NONBONDED TABLE R-SQUARED SPACING: 0.0625
Info: NONBONDED TABLE SIZE: 705 POINTS
TCL: Setting parameter alchLambda2 to 0.25
Info: NONBONDED TABLE R-SQUARED SPACING: 0.0625
Info: NONBONDED TABLE SIZE: 705 POINTS
TCL: Running for 1500000 steps
ETITLE: TS BOND ANGLE DIHED IMPRP ELECT VDW BOUNDARY MISC KINETIC TOTAL TEMP POTENTIAL TOTALAVG TEMPAVG PRESSURE GPRESSURE VOLUME PRESSAVG GPRESSAVG
ENERGY: 0 8.6145 15.8411 9.8405 0.0000 -10533.0921 1381.7388 0.0000 0.0000 1745.9735 -7371.0838 296.8791 -9117.0573 -7371.0838 296.8791 -630.2714 -537.5863 30610.0990 -630.2714 -537.5863
ENERGY: 300000 4.2509 11.8992 7.6362 0.0000 -10547.2930 1486.4204 0.0000 0.0000 1781.6578 -7255.4285 302.9468 -9037.0862 -7323.4866 298.3108 675.4014 723.8557 30247.2234 -186.8203 -115.2691
ENERGY: 600000 12.4902 17.7242 10.5682 0.0000 -10391.6260 1266.6382 0.0000 0.0000 1787.8988 -7296.3065 304.0080 -9084.2053 -7333.7079 298.9044 -1764.4536 -1747.2953 30718.9749 -448.5514 -390.4941
ENERGY: 900000 11.3045 19.5428 11.2900 0.0000 -10521.8285 1460.0203 0.0000 0.0000 1770.3962 -7249.2748 301.0319 -9019.6710 -7329.5428 300.0538 376.2241 342.2057 30263.2821 -332.6030 -285.8750
ENERGY: 1200000 5.2833 13.5151 7.1621 0.0000 -10638.9884 1433.9150 0.0000 0.0000 1740.3813 -7438.7316 295.9283 -9179.1129 -7349.6472 298.6677 -103.8961 -88.9097 29499.6152 -352.4654 -301.5018
ENERGY: 1500000 9.1729 15.4854 7.9550 0.0000 -10532.5498 1388.0111 0.0000 0.0000 1749.7192 -7362.2060 297.5161 -9111.9253 -7359.6645 298.1852 -767.3669 -790.7588 31019.9859 -409.2926 -361.2849
TCL: Running FEP window   6: Lambda1 0.25   Lambda2 0.3    [dLambda 0.04999999999999999]
TCL: Setting parameter firsttimestep to 0
TCL: Setting parameter alchLambda to 0.25
Info: NONBONDED TABLE R-SQUARED SPACING: 0.0625
Info: NONBONDED TABLE SIZE: 705 POINTS
TCL: Setting parameter alchLambda2 to 0.3
Info: NONBONDED TABLE R-SQUARED SPACING: 0.0625
Info: NONBONDED TABLE SIZE: 705 POINTS
TCL: Running for 1500000 steps
ETITLE: TS BOND ANGLE DIHED IMPRP ELECT VDW BOUNDARY MISC KINETIC TOTAL TEMP POTENTIAL TOTALAVG TEMPAVG PRESSURE GPRESSURE VOLUME PRESSAVG GPRESSAVG
ENERGY: 0 9.1729 15.4854 7.9550 0.0000 -10532.5505 1388.0906 0.0000 0.0000 1748.8273 -7363.0193 297.3644 -9111.8466 -7363.0193 297.3644 -867.3347 -784.6090 31019.9859 -867.3347 -784.6090
ENERGY: 300000 5.9754 14.5562 10.3560 0.0000 -10433.0562 1315.6615 0.0000 0.0000 1784.6654 -7301.8417 303.4582 -9086.5071 -7351.0043 298.9593 -627.8779 -520.4257 29766.4893 -363.6648 -284.8024
ENERGY: 600000 5.8163 14.9553 9.6571 0.0000 -10402.0909 1340.7853 0.0000 0.0000 1744.3071 -7286.5699 296.5958 -9030.8770 -7328.5608 299.2596 -690.9448 -583.7523 30442.0627 -307.4266 -233.3762
ENERGY: 900000 4.8816 16.2932 5.8692 0.0000 -10483.0810 1372.1512 0.0000 0.0000 1748.3700 -7335.5157 297.2866 -9083.8857 -7331.6532 298.6226 -446.7085 -410.1172 30234.1806 -283.2930 -221.1496
ENERGY: 1200000 8.3866 15.4100 9.6909 0.0000 -10528.1181 1439.9640 0.0000 0.0000 1818.9219 -7235.7446 309.2830 -9054.6666 -7319.1980 300.5690 291.9671 400.7106 30035.1158 -93.0777 -30.3262
ENERGY: 1500000 5.7547 14.5643 8.4070 0.0000 -10514.4407 1364.3085 0.0000 0.0000 1791.1247 -7330.2815 304.5565 -9121.4061 -7314.0519 300.4407 -593.0459 -545.1505 29981.3541 -11.5153 51.9682
TCL: Running FEP window   7: Lambda1 0.3    Lambda2 0.35   [dLambda 0.04999999999999999]
TCL: Setting parameter firsttimestep to 0
TCL: Setting parameter alchLambda to 0.3
Info: NONBONDED TABLE R-SQUARED SPACING: 0.0625
Info: NONBONDED TABLE SIZE: 705 POINTS
TCL: Setting parameter alchLambda2 to 0.35
Info: NONBONDED TABLE R-SQUARED SPACING: 0.0625
Info: NONBONDED TABLE SIZE: 705 POINTS
TCL: Running for 1500000 steps
ETITLE: TS BOND ANGLE DIHED IMPRP ELECT VDW BOUNDARY MISC KINETIC TOTAL TEMP POTENTIAL TOTALAVG TEMPAVG PRESSURE GPRESSURE VOLUME PRESSAVG GPRESSAVG
ENERGY: 0 5.7547 14.5643 8.4070 0.0000 -10514.4405 1364.7159 0.0000 0.0000 1790.2817 -7330.7168 304.4132 -9120.9985 -7330.7168 304.4132 -608.2517 -533.5369 29981.3541 -608.2517 -533.5369
ENERGY: 300000 6.6378 15.1254 12.6579 0.0000 -10646.2669 1500.9226 0.0000 0.0000 1751.7996 -7359.1235 297.8698 -9110.9231 -7339.0356 300.5810 474.3726 542.3340 30063.2492 -81.4289 -22.3146
ENERGY: 600000 3.6196 17.0556 8.5442 0.0000 -10608.6684 1463.4127 0.0000 0.0000 1752.2557 -7363.7806 297.9474 -9116.0363 -7334.7112 301.3406 440.5570 524.4055 29876.2103 -27.5100 25.6638
ENERGY: 900000 7.9694 11.6110 6.9719 0.0000 -10586.9485 1479.0091 0.0000 0.0000 1750.6756 -7330.7115 297.6787 -9081.3871 -7337.1850 300.6910 478.2096 541.5731 29985.8223 -106.7710 -54.2731
ENERGY: 1200000 4.4551 12.1905 10.8471 0.0000 -10602.9696 1524.8259 0.0000 0.0000 1789.3373 -7261.3137 304.2526 -9050.6510 -7340.2850 300.4879 970.5715 1064.6721 30322.5914 85.7074 141.5283
ENERGY: 1500000 3.5721 14.6644 15.8144 0.0000 -10560.5695 1477.5532 0.0000 0.0000 1760.4031 -7288.5623 299.3327 -9048.9654 -7335.4824 300.8933 548.2180 594.0300 30217.3710 93.8492 146.3735
TCL: Running FEP window   8: Lambda1 0.35   Lambda2 0.39999999999999997 [dLambda 0.04999999999999999]
TCL: Setting parameter firsttimestep to 0
TCL: Setting parameter alchLambda to 0.35
Info: NONBONDED TABLE R-SQUARED SPACING: 0.0625
Info: NONBONDED TABLE SIZE: 705 POINTS
TCL: Setting parameter alchLambda2 to 0.39999999999999997
Info: NONBONDED TABLE R-SQUARED SPACING: 0.0625
Info: NONBONDED TABLE SIZE: 705 POINTS
TCL: Running for 1500000 steps
ETITLE: TS BOND ANGLE DIHED IMPRP ELECT VDW BOUNDARY MISC KINETIC TOTAL TEMP POTENTIAL TOTALAVG TEMPAVG PRESSURE GPRESSURE VOLUME PRESSAVG GPRESSAVG
ENERGY: 0 3.5721 14.6644 15.8144 0.0000 -10560.5694 1476.8109 0.0000 0.0000 1759.5176 -7290.1901 299.1821 -9049.7076 -7290.1901 299.1821 506.7710 597.3011 30217.3710 506.7710 597.3011
ENERGY: 300000 4.0717 20.4609 12.6326 0.0000 -10498.6020 1386.7750 0.0000 0.0000 1775.2245 -7299.4373 301.8529 -9074.6618 -7266.4113 302.0827 -215.3976 -172.3293 30211.8644 -35.2165 38.5736
ENERGY: 600000 7.2779 12.7157 6.3448 0.0000 -10395.5809 1381.9787 0.0000 0.0000 1750.2485 -7237.0154 297.6060 -8987.2638 -7273.5150 301.9623 -54.3602 55.0229 30276.8677 -94.6439 -22.5235
ENERGY: 900000 7.6139 11.1093 11.5288 0.0000 -10602.7021 1461.2265 0.0000 0.0000 1747.2052 -7364.0184 297.0886 -9111.2235 -7291.5220 299.9013 470.1532 530.6167 29644.9315 -101.9299 -34.1909
ENERGY: 1200000 5.5873 11.1870 10.7569 0.0000 -10552.0897 1427.3995 0.0000 0.0000 1794.9690 -7302.1901 305.2102 -9097.1591 -7296.1172 300.1479 -92.0361 -39.9789 30188.6293 -123.1862 -56.6846
ENERGY: 1500000 9.3241 15.3521 11.3781 0.0000 -10610.0896 1503.7262 0.0000 0.0000 1728.8974 -7341.4116 293.9756 -9070.3090 -7302.5408 299.3396 512.4245 537.6211 30088.0334 -55.1673 11.1775
TCL: Running FEP window   9: Lambda1 0.39999999999999997 Lambda2 0.44999999999999996 [dLambda 0.04999999999999999]
TCL: Setting parameter firsttimestep to 0
TCL: Setting parameter alchLambda to 0.39999999999999997
Info: NONBONDED TABLE R-SQUARED SPACING: 0.0625
Info: NONBONDED TABLE SIZE: 705 POINTS
TCL: Setting parameter alchLambda2 to 0.44999999999999996
Info: NONBONDED TABLE R-SQUARED SPACING: 0.0625
Info: NONBONDED TABLE SIZE: 705 POINTS
TCL: Running for 1500000 steps
ETITLE: TS BOND ANGLE DIHED IMPRP ELECT VDW BOUNDARY MISC KINETIC TOTAL TEMP POTENTIAL TOTALAVG TEMPAVG PRESSURE GPRESSURE VOLUME PRESSAVG GPRESSAVG
ENERGY: 0 9.3240 15.3522 11.3781 0.0000 -10610.0905 1503.5856 0.0000 0.0000 1728.0701 -7342.3805 293.8349 -9070.4506 -7342.3805 293.8349 472.1282 547.2442 30088.0334 472.1282 547.2442
ENERGY: 300000 3.8121 16.6670 12.1316 0.0000 -10565.9942 1455.6367 0.0000 0.0000 1751.0969 -7326.6499 297.7503 -9077.7468 -7324.3402 301.4715 133.0790 204.7521 30327.5031 8.1961 77.0247
ENERGY: 600000 9.4612 12.5063 7.2238 0.0000 -10558.3462 1451.1539 0.0000 0.0000 1738.8143 -7339.1867 295.6618 -9078.0010 -7330.6301 299.9239 380.8249 429.2363 29957.7913 -66.3421 0.8041
ENERGY: 900000 9.7714 16.7272 8.3757 0.0000 -10545.1306 1426.6004 0.0000 0.0000 1783.9172 -7299.7387 303.3310 -9083.6559 -7316.7212 301.6975 97.3054 197.2941 30095.2161 49.3007 117.5586
ENERGY: 1200000 5.7349 15.4846 13.3184 0.0000 -10698.9404 1537.3486 0.0000 0.0000 1683.7866 -7443.2675 286.3051 -9127.0540 -7345.7069 299.4235 570.5705 570.1393 30213.5266 53.9977 117.4938
ENERGY: 1500000 10.9886 16.2022 12.7715 0.0000 -10590.9021 1459.5671 0.0000 0.0000 1748.1716 -7343.2011 297.2529 -9091.3727 -7339.9917 298.7627 332.9182 361.1960 29858.9005 104.3159 163.9362
TCL: Running FEP window  10: Lambda1 0.44999999999999996 Lambda2 0.49999999999999994 [dLambda 0.04999999999999999]
TCL: Setting parameter firsttimestep to 0
TCL: Setting parameter alchLambda to 0.44999999999999996
Info: NONBONDED TABLE R-SQUARED SPACING: 0.0625
Info: NONBONDED TABLE SIZE: 705 POINTS
TCL: Setting parameter alchLambda2 to 0.49999999999999994
Info: NONBONDED TABLE R-SQUARED SPACING: 0.0625
Info: NONBONDED TABLE SIZE: 705 POINTS
TCL: Running for 1500000 steps
ETITLE: TS BOND ANGLE DIHED IMPRP ELECT VDW BOUNDARY MISC KINETIC TOTAL TEMP POTENTIAL TOTALAVG TEMPAVG PRESSURE GPRESSURE VOLUME PRESSAVG GPRESSAVG
ENERGY: 0 10.9886 16.2022 12.7715 0.0000 -10590.9030 1459.9020 0.0000 0.0000 1747.2896 -7343.7490 297.1029 -9091.0386 -7343.7490 297.1029 303.8710 375.1579 29858.9005 303.8710 375.1579
ENERGY: 300000 5.8767 15.2973 8.4382 0.0000 -10446.2270 1303.1481 0.0000 0.0000 1808.9177 -7304.5491 307.5819 -9113.4668 -7321.7315 301.8429 -1091.0259 -1083.9387 30376.7424 -225.5552 -184.3392
ENERGY: 600000 6.0202 12.0647 6.9744 0.0000 -10670.2776 1471.6147 0.0000 0.0000 1741.3849 -7432.2187 296.0989 -9173.6036 -7350.3997 301.4290 256.7997 311.8867 29999.5073 -11.8119 43.5669
ENERGY: 900000 8.0772 15.6878 10.5098 0.0000 -10681.4587 1424.5647 0.0000 0.0000 1754.3636 -7468.2556 298.3058 -9222.6192 -7368.5616 299.5933 -178.1724 -158.8171 29525.2230 -15.4442 34.6192
ENERGY: 1200000 6.4241 15.4008 10.5494 0.0000 -10517.6243 1459.3469 0.0000 0.0000 1765.6224 -7260.2808 300.2202 -9025.9032 -7347.7557 299.6637 507.0633 641.6538 29853.5775 -14.2491 46.3478
ENERGY: 1500000 5.5479 15.8596 8.2541 0.0000 -10531.4306 1402.2954 0.0000 0.0000 1779.2733 -7320.2004 302.5413 -9099.4737 -7344.4548 299.4824 93.9719 161.2043 29737.3584 -108.5062 -51.7418
TCL: Running FEP window  11: Lambda1 0.49999999999999994 Lambda2 0.5499999999999999 [dLambda 0.04999999999999999]
TCL: Setting parameter firsttimestep to 0
TCL: Setting parameter alchLambda to 0.49999999999999994
Info: NONBONDED TABLE R-SQUARED SPACING: 0.0625
Info: NONBONDED TABLE SIZE: 705 POINTS
TCL: Setting parameter alchLambda2 to 0.5499999999999999
Info: NONBONDED TABLE R-SQUARED SPACING: 0.0625
Info: NONBONDED TABLE SIZE: 705 POINTS
TCL: Running for 1500000 steps
ETITLE: TS BOND ANGLE DIHED IMPRP ELECT VDW BOUNDARY MISC KINETIC TOTAL TEMP POTENTIAL TOTALAVG TEMPAVG PRESSURE GPRESSURE VOLUME PRESSAVG GPRESSAVG
ENERGY: 0 5.5479 15.8596 8.2541 0.0000 -10531.4307 1401.7595 0.0000 0.0000 1778.4115 -7321.5982 302.3948 -9100.0097 -7321.5982 302.3948 88.4651 169.0250 29737.3584 88.4651 169.0250
ENERGY: 300000 9.5376 13.5784 15.3567 0.0000 -10621.3492 1451.2092 0.0000 0.0000 1736.4285 -7395.2388 295.2561 -9131.6673 -7374.7663 296.5314 233.3070 287.5355 29982.2346 197.9847 268.7359
ENERGY: 600000 7.4376 14.3529 11.3064 0.0000 -10633.5525 1479.5429 0.0000 0.0000 1777.3234 -7343.5893 302.2098 -9120.9128 -7353.2916 299.6053 301.5668 331.1081 30067.1336 94.6123 158.4180
ENERGY: 900000 3.6525 15.7495 9.5132 0.0000 -10533.7889 1419.7379 0.0000 0.0000 1834.3957 -7250.7400 311.9141 -9085.1357 -7332.4675 300.3348 -97.7220 -50.4766 30320.7605 40.0832 99.1088
ENERGY: 1200000 9.6027 14.6328 5.3409 0.0000 -10499.2792 1388.8132 0.0000 0.0000 1750.7916 -7330.0978 297.6984 -9080.8895 -7332.8409 300.1181 -208.7991 -169.2453 30442.7393 -102.8674 -46.8356
ENERGY: 1500000 4.8196 16.2065 7.8331 0.0000 -10425.5822 1318.9114 0.0000 0.0000 1745.4326 -7332.3791 296.7872 -9077.8117 -7328.4470 299.9986 -869.8646 -780.5060 30174.8741 -154.1353 -102.1875
TCL: Running FEP window  12: Lambda1 0.5499999999999999 Lambda2 0.6    [dLambda 0.050000000000000044]
TCL: Setting parameter firsttimestep to 0
TCL: Setting parameter alchLambda to 0.5499999999999999
Info: NONBONDED TABLE R-SQUARED SPACING: 0.0625
Info: NONBONDED TABLE SIZE: 705 POINTS
TCL: Setting parameter alchLambda2 to 0.6
Info: NONBONDED TABLE R-SQUARED SPACING: 0.0625
Info: NONBONDED TABLE SIZE: 705 POINTS
TCL: Running for 1500000 steps
ETITLE: TS BOND ANGLE DIHED IMPRP ELECT VDW BOUNDARY MISC KINETIC TOTAL TEMP POTENTIAL TOTALAVG TEMPAVG PRESSURE GPRESSURE VOLUME PRESSAVG GPRESSAVG
ENERGY: 0 4.8196 16.2065 7.8331 0.0000 -10425.7297 1318.6795 0.0000 0.0000 1744.5369 -7333.6542 296.6349 -9078.1911 -7333.6542 296.6349 -861.3938 -770.0837 30174.8741 -861.3938 -770.0837
ENERGY: 300000 4.3643 13.1825 8.2800 0.0000 -10616.3546 1490.4593 0.0000 0.0000 1750.1357 -7349.9327 297.5869 -9100.0684 -7340.1209 298.4603 590.8406 668.3920 29778.6393 -54.3853 9.0240
ENERGY: 600000 7.7670 11.5388 8.0313 0.0000 -10621.6773 1451.1140 0.0000 0.0000 1799.0278 -7344.1984 305.9003 -9143.2262 -7335.7851 299.6098 428.9891 464.4874 29782.5817 98.8744 146.7478
ENERGY: 900000 5.6126 15.7911 8.1122 0.0000 -10374.2784 1354.7222 0.0000 0.0000 1780.1126 -7209.9277 302.6840 -8990.0403 -7322.6372 299.3960 -674.0808 -596.8168 30962.8461 -45.6371 12.0701
ENERGY: 1200000 5.5439 11.9019 13.6915 0.0000 -10518.5884 1419.7872 0.0000 0.0000 1814.5030 -7253.1610 308.5317 -9067.6639 -7312.8433 300.6235 -6.8523 45.8222 30597.0030 -82.2587 -18.2545
ENERGY: 1500000 7.6537 10.8369 8.9852 0.0000 -10589.8846 1441.4876 0.0000 0.0000 1804.9940 -7315.9272 306.9148 -9120.9212 -7308.6958 301.6452 318.4392 382.7999 30105.9260 -50.9421 9.5184
TCL: Running FEP window  13: Lambda1 0.6    Lambda2 0.65   [dLambda 0.050000000000000044]
TCL: Setting parameter firsttimestep to 0
TCL: Setting parameter alchLambda to 0.6
Info: NONBONDED TABLE R-SQUARED SPACING: 0.0625
Info: NONBONDED TABLE SIZE: 705 POINTS
TCL: Setting parameter alchLambda2 to 0.65
Info: NONBONDED TABLE R-SQUARED SPACING: 0.0625
Info: NONBONDED TABLE SIZE: 705 POINTS
TCL: Running for 1500000 steps
ETITLE: TS BOND ANGLE DIHED IMPRP ELECT VDW BOUNDARY MISC KINETIC TOTAL TEMP POTENTIAL TOTALAVG TEMPAVG PRESSURE GPRESSURE VOLUME PRESSAVG GPRESSAVG
ENERGY: 0 7.6537 10.8369 8.9852 0.0000 -10590.5365 1443.5760 0.0000 0.0000 1804.1327 -7315.3521 306.7683 -9119.4848 -7315.3521 306.7683 335.5004 416.7911 30105.9260 335.5004 416.7911
ENERGY: 300000 6.5646 16.3256 11.3180 0.0000 -10646.0385 1511.9539 0.0000 0.0000 1767.3331 -7332.5433 300.5111 -9099.8764 -7302.4113 303.9972 732.6091 852.9422 30270.9896 41.3950 122.6957
ENERGY: 600000 8.1103 13.9062 9.7953 0.0000 -10637.6798 1419.7321 0.0000 0.0000 1747.1129 -7439.0229 297.0729 -9186.1358 -7329.9491 302.7471 -475.3181 -364.5517 30350.1660 -50.4675 23.8014
ENERGY: 900000 6.8886 17.3782 7.8652 0.0000 -10594.5675 1468.3065 0.0000 0.0000 1747.4197 -7346.7092 297.1251 -9094.1289 -7332.1423 302.3064 254.0993 354.0829 30572.6932 -127.3223 -52.2685
ENERGY: 1200000 9.7617 16.0558 13.6075 0.0000 -10590.7100 1432.7390 0.0000 0.0000 1779.5984 -7338.9476 302.5966 -9118.5460 -7335.0437 301.7079 -44.8862 -64.7073 30260.3518 -169.0458 -107.5593
ENERGY: 1500000 7.9622 16.0295 6.6475 0.0000 -10687.9184 1495.6729 0.0000 0.0000 1758.1642 -7403.4422 298.9520 -9161.6064 -7342.4701 300.9211 191.3192 294.9115 30550.2937 -107.0987 -43.7318
TCL: Running FEP window  14: Lambda1 0.65   Lambda2 0.7000000000000001 [dLambda 0.050000000000000044]
TCL: Setting parameter firsttimestep to 0
TCL: Setting parameter alchLambda to 0.65
Info: NONBONDED TABLE R-SQUARED SPACING: 0.0625
Info: NONBONDED TABLE SIZE: 705 POINTS
TCL: Setting parameter alchLambda2 to 0.7000000000000001
Info: NONBONDED TABLE R-SQUARED SPACING: 0.0625
Info: NONBONDED TABLE SIZE: 705 POINTS
TCL: Running for 1500000 steps
ETITLE: TS BOND ANGLE DIHED IMPRP ELECT VDW BOUNDARY MISC KINETIC TOTAL TEMP POTENTIAL TOTALAVG TEMPAVG PRESSURE GPRESSURE VOLUME PRESSAVG GPRESSAVG
ENERGY: 0 7.9622 16.0294 6.6475 0.0000 -10688.3102 1495.7766 0.0000 0.0000 1757.2928 -7404.6017 298.8038 -9161.8944 -7404.6017 298.8038 236.6556 311.4354 30550.2937 236.6556 311.4354
ENERGY: 300000 10.8093 13.1198 8.8110 0.0000 -10518.3976 1403.0599 0.0000 0.0000 1768.0454 -7314.5523 300.6322 -9082.5977 -7378.5371 297.8794 -169.7231 -123.7135 30015.0624 59.3451 117.9378
ENERGY: 600000 8.1732 14.9955 7.7283 0.0000 -10475.2525 1414.2864 0.0000 0.0000 1803.2512 -7226.8179 306.6184 -9030.0691 -7351.6414 297.3442 363.2964 470.2315 30299.6649 122.1338 180.9299
ENERGY: 900000 8.8184 17.3367 8.4319 0.0000 -10529.8201 1368.0443 0.0000 0.0000 1759.2416 -7367.9472 299.1352 -9127.1888 -7352.9092 298.7090 -741.0507 -583.3676 30202.8501 -118.1402 -46.7293
ENERGY: 1200000 6.7276 16.2971 9.9361 0.0000 -10524.3189 1374.2501 0.0000 0.0000 1752.3489 -7364.7591 297.9632 -9117.1081 -7350.9610 299.3254 -225.6125 -149.7006 30364.6451 -107.4227 -37.4363
ENERGY: 1500000 5.6083 17.6455 14.7282 0.0000 -10453.4019 1376.3772 0.0000 0.0000 1810.9939 -7228.0487 307.9350 -9039.0426 -7347.3278 299.8573 -212.4440 -99.5836 30214.9522 -143.9846 -75.1101
TCL: Running FEP window  15: Lambda1 0.7000000000000001 Lambda2 0.7500000000000001 [dLambda 0.050000000000000044]
TCL: Setting parameter firsttimestep to 0
TCL: Setting parameter alchLambda to 0.7000000000000001
Info: NONBONDED TABLE R-SQUARED SPACING: 0.0625
Info: NONBONDED TABLE SIZE: 705 POINTS
TCL: Setting parameter alchLambda2 to 0.7500000000000001
Info: NONBONDED TABLE R-SQUARED SPACING: 0.0625
Info: NONBONDED TABLE SIZE: 705 POINTS
TCL: Running for 1500000 steps
ETITLE: TS BOND ANGLE DIHED IMPRP ELECT VDW BOUNDARY MISC KINETIC TOTAL TEMP POTENTIAL TOTALAVG TEMPAVG PRESSURE GPRESSURE VOLUME PRESSAVG GPRESSAVG
ENERGY: 0 5.6083 17.6455 14.7282 0.0000 -10454.9772 1377.1110 0.0000 0.0000 1810.1232 -7229.7609 307.7869 -9039.8842 -7229.7609 307.7869 -148.7661 -76.2719 30214.9522 -148.7661 -76.2719
ENERGY: 300000 4.6038 11.1271 8.8986 0.0000 -10519.1753 1390.7522 0.0000 0.0000 1787.0432 -7316.7505 303.8625 -9103.7937 -7301.7622 300.3156 -93.3005 41.6560 30331.5852 -74.4873 0.3695
ENERGY: 600000 6.5026 14.7299 8.4349 0.0000 -10625.2242 1506.8813 0.0000 0.0000 1769.7925 -7318.8830 300.9292 -9088.6755 -7303.7180 300.0865 747.9111 825.2813 30387.1902 161.2199 250.6204
ENERGY: 900000 10.2835 10.4441 8.5091 0.0000 -10552.0235 1497.6698 0.0000 0.0000 1754.9284 -7270.1886 298.4018 -9025.1170 -7311.9691 300.3097 892.0894 926.7644 29876.4435 207.1918 288.4462
ENERGY: 1200000 11.0225 18.1458 10.5359 0.0000 -10610.2730 1411.1889 0.0000 0.0000 1765.2167 -7394.1633 300.1512 -9159.3800 -7318.9382 300.5305 -568.7951 -436.1727 30518.9332 55.2228 129.2913
ENERGY: 1500000 6.4287 17.2287 12.3749 0.0000 -10589.5431 1404.1584 0.0000 0.0000 1741.8373 -7407.5151 296.1758 -9149.3523 -7328.3239 300.0328 -451.5970 -435.2518 30328.2439 100.1340 169.3939
TCL: Running FEP window  16: Lambda1 0.7500000000000001 Lambda2 0.8000000000000002 [dLambda 0.050000000000000044]
TCL: Setting parameter firsttimestep to 0
TCL: Setting parameter alchLambda to 0.7500000000000001
Info: NONBONDED TABLE R-SQUARED SPACING: 0.0625
Info: NONBONDED TABLE SIZE: 705 POINTS
TCL: Setting parameter alchLambda2 to 0.8000000000000002
Info: NONBONDED TABLE R-SQUARED SPACING: 0.0625
Info: NONBONDED TABLE SIZE: 705 POINTS
TCL: Running for 1500000 steps
ETITLE: TS BOND ANGLE DIHED IMPRP ELECT VDW BOUNDARY MISC KINETIC TOTAL TEMP POTENTIAL TOTALAVG TEMPAVG PRESSURE GPRESSURE VOLUME PRESSAVG GPRESSAVG
ENERGY: 0 6.4287 17.2287 12.3749 0.0000 -10590.8532 1404.0171 0.0000 0.0000 1740.9748 -7409.8290 296.0292 -9150.8038 -7409.8290 296.0292 -504.4202 -420.5934 30328.2439 -504.4202 -420.5934
ENERGY: 300000 4.6307 14.5734 9.5661 0.0000 -10696.6995 1551.5369 0.0000 0.0000 1740.8488 -7375.5435 296.0078 -9116.3923 -7374.2329 296.7962 1161.8152 1164.3407 30214.9193 190.0462 242.1978
ENERGY: 600000 6.3912 13.3525 11.4174 0.0000 -10636.7054 1401.1302 0.0000 0.0000 1711.2810 -7493.1333 290.9801 -9204.4142 -7375.9155 296.3473 -525.3809 -449.5881 30469.3268 60.1531 117.8848
ENERGY: 900000 8.4813 16.2807 7.9700 0.0000 -10645.8420 1447.9279 0.0000 0.0000 1790.7871 -7374.3950 304.4991 -9165.1822 -7378.0117 297.6303 257.4806 274.8232 30336.3454 66.8121 114.9366
ENERGY: 1200000 10.0462 9.6514 9.3076 0.0000 -10602.5737 1438.2385 0.0000 0.0000 1749.0665 -7386.2635 297.4051 -9135.3300 -7377.2997 298.0537 125.4744 228.3275 30422.3370 88.3566 141.0815
ENERGY: 1500000 3.7766 15.1019 9.4883 0.0000 -10352.1589 1310.5479 0.0000 0.0000 1755.0451 -7258.1991 298.4216 -9013.2441 -7368.6535 299.0090 -661.2502 -591.0358 30350.7823 44.8335 102.9952
TCL: Running FEP window  17: Lambda1 0.8000000000000002 Lambda2 0.8500000000000002 [dLambda 0.050000000000000044]
TCL: Setting parameter firsttimestep to 0
TCL: Setting parameter alchLambda to 0.8000000000000002
Info: NONBONDED TABLE R-SQUARED SPACING: 0.0625
Info: NONBONDED TABLE SIZE: 705 POINTS
TCL: Setting parameter alchLambda2 to 0.8500000000000002
Info: NONBONDED TABLE R-SQUARED SPACING: 0.0625
Info: NONBONDED TABLE SIZE: 705 POINTS
TCL: Running for 1500000 steps
ETITLE: TS BOND ANGLE DIHED IMPRP ELECT VDW BOUNDARY MISC KINETIC TOTAL TEMP POTENTIAL TOTALAVG TEMPAVG PRESSURE GPRESSURE VOLUME PRESSAVG GPRESSAVG
ENERGY: 0 3.7766 15.1019 9.4883 0.0000 -10354.7989 1311.9403 0.0000 0.0000 1754.2030 -7260.2888 298.2785 -9014.4918 -7260.2888 298.2785 -658.0664 -561.8385 30350.7823 -658.0664 -561.8385
ENERGY: 300000 4.9767 13.3897 8.1352 0.0000 -10473.7643 1373.3880 0.0000 0.0000 1771.9066 -7301.9682 301.2887 -9073.8748 -7318.9937 299.8897 -233.0858 -189.8466 30334.7799 95.0081 164.2864
ENERGY: 600000 10.0574 13.9464 14.9481 0.0000 -10620.4004 1433.4903 0.0000 0.0000 1707.2281 -7440.7301 290.2910 -9147.9582 -7332.5854 297.7976 236.3335 285.0718 29672.7860 135.5938 204.9155
ENERGY: 900000 4.6541 13.7130 7.8841 0.0000 -10468.4085 1345.1068 0.0000 0.0000 1758.6031 -7338.4475 299.0266 -9097.0506 -7337.5207 298.3546 -867.1506 -706.1942 30841.0162 -9.2063 69.6416
ENERGY: 1200000 3.3319 12.1547 7.7352 0.0000 -10510.0531 1364.1963 0.0000 0.0000 1790.4891 -7332.1459 304.4484 -9122.6349 -7339.2460 298.9720 -253.8482 -185.5977 29945.3501 -78.6446 1.8048
ENERGY: 1500000 5.6572 13.8644 8.4357 0.0000 -10590.3747 1459.8608 0.0000 0.0000 1752.4955 -7350.0611 297.9881 -9102.5567 -7343.0728 299.1434 622.5694 659.8631 30086.5817 -57.1246 19.8809
TCL: Running FEP window  18: Lambda1 0.8500000000000002 Lambda2 0.9000000000000002 [dLambda 0.050000000000000044]
TCL: Setting parameter firsttimestep to 0
TCL: Setting parameter alchLambda to 0.8500000000000002
Info: NONBONDED TABLE R-SQUARED SPACING: 0.0625
Info: NONBONDED TABLE SIZE: 705 POINTS
TCL: Setting parameter alchLambda2 to 0.9000000000000002
Info: NONBONDED TABLE R-SQUARED SPACING: 0.0625
Info: NONBONDED TABLE SIZE: 705 POINTS
TCL: Running for 1500000 steps
ETITLE: TS BOND ANGLE DIHED IMPRP ELECT VDW BOUNDARY MISC KINETIC TOTAL TEMP POTENTIAL TOTALAVG TEMPAVG PRESSURE GPRESSURE VOLUME PRESSAVG GPRESSAVG
ENERGY: 0 5.6572 13.8644 8.4357 0.0000 -10593.2633 1461.3513 0.0000 0.0000 1751.6215 -7352.3332 297.8395 -9103.9547 -7352.3332 297.8395 612.8461 692.0814 30086.5817 612.8461 692.0814
ENERGY: 300000 4.9062 10.9490 12.5530 0.0000 -10471.1691 1373.8030 0.0000 0.0000 1721.7495 -7347.2084 292.7602 -9068.9579 -7341.2410 298.6057 -177.5730 -126.1834 30679.7454 284.3816 339.3533
ENERGY: 600000 4.6780 12.1609 10.5187 0.0000 -10600.8933 1490.0399 0.0000 0.0000 1778.1465 -7305.3493 302.3497 -9083.4958 -7347.3962 298.1004 906.8725 942.4231 30293.7164 465.2117 511.4774
ENERGY: 900000 10.8346 20.6826 11.8564 0.0000 -10429.8612 1423.1246 0.0000 0.0000 1728.9401 -7234.4229 293.9829 -8963.3630 -7328.7191 297.5437 101.7058 173.9250 30878.3193 420.7170 468.5099
ENERGY: 1200000 3.7318 22.4555 10.3060 0.0000 -10551.7843 1444.4533 0.0000 0.0000 1766.7116 -7304.1261 300.4054 -9070.8377 -7313.8813 299.6040 322.7107 280.8558 30360.6861 389.2330 425.9448
ENERGY: 1500000 10.8561 9.8660 8.0471 0.0000 -10518.6892 1366.7801 0.0000 0.0000 1728.4326 -7394.7074 293.8965 -9123.1399 -7322.0052 300.0065 -655.1901 -625.5807 30460.7595 345.0449 384.9580
TCL: Running FEP window  19: Lambda1 0.9000000000000002 Lambda2 0.9500000000000003 [dLambda 0.050000000000000044]
TCL: Setting parameter firsttimestep to 0
TCL: Setting parameter alchLambda to 0.9000000000000002
Info: NONBONDED TABLE R-SQUARED SPACING: 0.0625
Info: NONBONDED TABLE SIZE: 705 POINTS
TCL: Setting parameter alchLambda2 to 0.9500000000000003
Info: NONBONDED TABLE R-SQUARED SPACING: 0.0625
Info: NONBONDED TABLE SIZE: 705 POINTS
TCL: Running for 1500000 steps
ETITLE: TS BOND ANGLE DIHED IMPRP ELECT VDW BOUNDARY MISC KINETIC TOTAL TEMP POTENTIAL TOTALAVG TEMPAVG PRESSURE GPRESSURE VOLUME PRESSAVG GPRESSAVG
ENERGY: 0 10.8561 9.8660 8.0471 0.0000 -10520.3635 1367.9641 0.0000 0.0000 1727.5298 -7396.1004 293.7430 -9123.6302 -7396.1004 293.7430 -659.5726 -590.7469 30460.7595 -659.5726 -590.7469
ENERGY: 300000 6.6665 15.6699 12.0485 0.0000 -10463.6924 1370.0878 0.0000 0.0000 1732.9481 -7326.2717 294.6643 -9059.2198 -7370.3302 294.0343 -257.8524 -210.0056 30346.6523 -250.6185 -178.0966
ENERGY: 600000 5.8060 15.9524 8.3808 0.0000 -10431.1803 1337.1325 0.0000 0.0000 1775.8495 -7288.0592 301.9592 -9063.9087 -7351.7651 297.0629 -424.1158 -329.8630 30256.7749 -219.5235 -133.2736
ENERGY: 900000 7.2481 12.5616 11.6861 0.0000 -10624.9002 1471.9223 0.0000 0.0000 1754.9937 -7366.4883 298.4129 -9121.4820 -7357.7704 297.2179 740.2828 787.5984 30107.6644 -230.3599 -151.1815
ENERGY: 1200000 7.3907 16.6848 14.3165 0.0000 -10551.2729 1412.7582 0.0000 0.0000 1781.6095 -7318.5133 302.9386 -9100.1228 -7349.6699 297.8611 -152.4276 -145.0279 30899.4077 -255.6811 -184.4771
ENERGY: 1500000 6.3275 13.8965 13.5672 0.0000 -10552.4119 1407.3609 0.0000 0.0000 1698.0356 -7413.2242 288.7280 -9111.2598 -7351.6735 297.4807 -248.8674 -176.1920 30599.8857 -240.6971 -168.0977
TCL: Running FEP window  20: Lambda1 0.9500000000000003 Lambda2 1.0    [dLambda 0.04999999999999971]
TCL: Setting parameter firsttimestep to 0
TCL: Setting parameter alchLambda to 0.9500000000000003
Info: NONBONDED TABLE R-SQUARED SPACING: 0.0625
Info: NONBONDED TABLE SIZE: 705 POINTS
TCL: Setting parameter alchLambda2 to 1.0
Info: NONBONDED TABLE R-SQUARED SPACING: 0.0625
Info: NONBONDED TABLE SIZE: 705 POINTS
TCL: Running for 1500000 steps
ETITLE: TS BOND ANGLE DIHED IMPRP ELECT VDW BOUNDARY MISC KINETIC TOTAL TEMP POTENTIAL TOTALAVG TEMPAVG PRESSURE GPRESSURE VOLUME PRESSAVG GPRESSAVG
ENERGY: 0 6.3275 13.8965 13.5672 0.0000 -10554.8820 1409.6812 0.0000 0.0000 1697.1552 -7414.2543 288.5783 -9111.4096 -7414.2543 288.5783 -217.0303 -127.2389 30599.8857 -217.0303 -127.2389
ENERGY: 300000 6.7223 17.5516 7.6986 0.0000 -10580.3307 1433.7548 0.0000 0.0000 1828.1155 -7286.4879 310.8463 -9114.6034 -7337.0382 302.4945 50.2910 128.5250 30588.7247 14.6132 84.0216
ENERGY: 600000 6.5067 16.2002 11.5808 0.0000 -10625.2490 1441.4853 0.0000 0.0000 1772.6483 -7376.8276 301.4148 -9149.4759 -7360.0690 300.6631 141.8257 262.5317 30123.3470 -8.1840 67.0564
ENERGY: 900000 8.4822 15.8915 6.4755 0.0000 -10655.1817 1433.9240 0.0000 0.0000 1748.2418 -7442.1668 297.2648 -9190.4086 -7377.2336 299.0097 -82.9288 43.8466 30038.6888 -50.9245 34.7891
ENERGY: 1200000 7.0779 13.7980 9.4289 0.0000 -10573.7648 1462.2058 0.0000 0.0000 1782.0368 -7299.2175 303.0112 -9081.2543 -7369.8960 298.9640 72.0118 181.6953 31107.5273 32.5349 112.9137
ENERGY: 1500000 7.6782 11.7167 10.9101 0.0000 -10542.9128 1382.4598 0.0000 0.0000 1774.7162 -7355.4319 301.7664 -9130.1481 -7362.0370 299.7555 -340.0281 -240.2631 30665.8973 -14.6612 63.9418
TCL: Exiting due to exit command.
