Info: SIMULATION PARAMETERS:
Info: TIMESTEP               2
Info: NUMBER OF STEPS        0
Info: STEPS PER CYCLE        10
Info: PERIODIC CELL BASIS 1  36.9303 0 0
Info: PERIODIC CELL BASIS 2  0 29.6936 0
Info: PERIODIC CELL BASIS 3  0 0 27.8669
Info: PERIODIC CELL CENTER   0 0 0
Info: WRAPPING WATERS AROUND PERIODIC BOUNDARIES ON OUTPUT.
Info: WRAPPING ALL CLUSTERS AROUND PERIODIC BOUNDARIES ON OUTPUT.
Info: FIRST LDB TIMESTEP     50
Info: LAST LDB TIMESTEP     -1
Info: HOM BACKGROUND SCALING 1
Info: PME BACKGROUND SCALING 1
Info: MIN ATOMS PER PATCH    40
Info: EMPTY PATCH LOAD       40 ATOMS
Info: VELOCITY FILE          mobley_7375018_equil.vel
Info: CENTER OF MASS MOVING INITIALLY? NO
Info: DIELECTRIC             1
Info: EXCLUDE                SCALED ONE-FOUR
Info: 1-4 ELECTROSTATICS SCALED BY 0.833333
Info: MODIFIED 1-4 VDW PARAMETERS WILL BE USED
Info: DCD FILENAME           mobley_7375018_prod.dcd
Info: DCD FREQUENCY          100000
Info: DCD FIRST STEP         100000
Info: DCD FILE WILL CONTAIN UNIT CELL DATA
Info: XST FILENAME           mobley_7375018_prod.xst
Info: XST FREQUENCY          100000
Info: NO VELOCITY DCD OUTPUT
Info: NO FORCE DCD OUTPUT
Info: OUTPUT FILENAME        mobley_7375018_prod
Info: BINARY OUTPUT FILES WILL BE USED
Info: RESTART FILENAME       mobley_7375018_prod.restart
Info: RESTART FREQUENCY      100000
Info: BINARY RESTART FILES WILL BE USED
Info: CUTOFF                 9
Info: PAIRLIST DISTANCE      11
Info: PAIRLIST SHRINK RATE   0.01
Info: PAIRLIST GROW RATE     0.01
Info: PAIRLIST TRIGGER       0.3
Info: PAIRLISTS PER CYCLE    2
Info: PAIRLISTS ENABLED
Info: MARGIN                 2
Info: HYDROGEN GROUP CUTOFF  2.5
Info: PATCH DIMENSION        15.5
Info: ENERGY OUTPUT STEPS    100000
Info: ENERGY EVALUATION STEPS    100000
Info: OUTPUT ENERGY PRECISION 4
Info: CROSSTERM ENERGY INCLUDED IN DIHEDRAL
Info: TIMING OUTPUT STEPS    1000000
Info: PRESSURE OUTPUT STEPS  100000
Info: ALCHEMICAL FEP ON
Info: FEP CURRENT LAMBDA VALUE     1
Info: FEP COMPARISON LAMBDA VALUE  0.95
Info: FEP INTRA-ALCHEMICAL NON-BONDED INTERACTIONS WILL BE RETAINED
Info: FEP INTRA-ALCHEMICAL BONDED INTERACTIONS WILL BE RETAINED
Info: FEP VDW SHIFTING COEFFICIENT 5
Info: FEP ELEC. ACTIVE FOR ANNIHILATED PARTICLES BETWEEN LAMBDA = 0 AND LAMBDA = 0.5
Info: FEP ELEC. ACTIVE FOR EXNIHILATED PARTICLES BETWEEN LAMBDA = 0.5 AND LAMBDA = 1
Info: FEP VDW ACTIVE FOR ANNIHILATED PARTICLES BETWEEN LAMBDA = 0 AND LAMBDA = 1
Info: FEP VDW ACTIVE FOR EXNIHILATED PARTICLES BETWEEN LAMBDA = 0 AND LAMBDA = 1
Info: FEP BOND ACTIVE FOR ANNIHILATED PARTICLES BETWEEN LAMBDA = 1 AND LAMBDA = 1
Info: FEP BOND ACTIVE FOR EXNIHILATED PARTICLES BETWEEN LAMBDA = 0 AND LAMBDA = 0
Info: LANGEVIN DYNAMICS ACTIVE
Info: LANGEVIN TEMPERATURE   300
Info: LANGEVIN USING BBK INTEGRATOR
Info: LANGEVIN DAMPING COEFFICIENT IS 1 INVERSE PS
Info: LANGEVIN DYNAMICS APPLIED TO HYDROGENS
Info: LANGEVIN PISTON PRESSURE CONTROL ACTIVE
Info:        TARGET PRESSURE IS 1.01325 BAR
Info:     OSCILLATION PERIOD IS 50 FS
Info:             DECAY TIME IS 25 FS
Info:     PISTON TEMPERATURE IS 300 K
Info:       PRESSURE CONTROL IS GROUP-BASED
Info:    INITIAL STRAIN RATE IS 8.17515e-05 8.17515e-05 8.17515e-05
Info:       CELL FLUCTUATION IS ISOTROPIC
Info: PARTICLE MESH EWALD (PME) ACTIVE
Info: PME TOLERANCE               1e-06
Info: PME EWALD COEFFICIENT       0.348832
Info: PME INTERPOLATION ORDER     4
Info: PME GRID DIMENSIONS         40 32 28
Info: PME MAXIMUM GRID SPACING    1
Info: PME CALCULATION WILL BE PERFORMED ON GPU
Info: FULL ELECTROSTATIC EVALUATION FREQUENCY      2
Info: USING VERLET I (r-RESPA) MTS SCHEME.
Info: C1 SPLITTING OF LONG RANGE ELECTROSTATICS
Info: PLACING ATOMS IN PATCHES BY HYDROGEN GROUPS
Info: RIGID BONDS TO HYDROGEN : ALL
Info:         ERROR TOLERANCE : 1e-08
Info:          MAX ITERATIONS : 100
Info: RIGID WATER USING SETTLE ALGORITHM
Info: RANDOM NUMBER SEED     1744096277
Info: USE HYDROGEN BONDS?    NO
Info: Using AMBER format force field!
Info: AMBER PARM FILE        mobley_7375018.prmtop
Info: COORDINATE PDB         mobley_7375018.pdb
Info: Exclusions will be read from PARM file!
Info: SCNB (VDW SCALING)     2
Info: USING ARITHMETIC MEAN TO COMBINE L-J SIGMA PARAMETERS
Info: BINARY COORDINATES     mobley_7375018_equil.coor
Info: SUMMARY OF PARAMETERS:
Info: 6 BONDS
Info: 7 ANGLES
Info:   7 HARMONIC
Info:   0 COSINE-BASED
Info: 11 DIHEDRAL
Info: 0 IMPROPER
Info: 0 CROSSTERM
Info: 0 VDW
Info: 21 VDW_PAIRS
Info: 0 NBTHOLE_PAIRS
Info: To read alchdata from file: mobley_7375018.pdb
Info: To read alchflag data from column: 5
Info: STRUCTURE SUMMARY:
Info: 2923 ATOMS
Info: 2922 BONDS
Info: 63 ANGLES
Info: 107 DIHEDRALS
Info: 0 IMPROPERS
Info: 0 CROSSTERMS
Info: 3069 EXCLUSIONS
Info: 2911 RIGID BONDS
Info: ALCH: 0 ATOMS TO DISAPPEAR IN FINAL STATE
Info: ALCH: 34 ATOMS TO APPEAR IN FINAL STATE
Info: 5858 DEGREES OF FREEDOM
Info: 975 HYDROGEN GROUPS
Info: 4 ATOMS IN LARGEST HYDROGEN GROUP
Info: 975 MIGRATION GROUPS
Info: 4 ATOMS IN LARGEST MIGRATION GROUP
Info: TOTAL MASS = 17519.7 amu
Info: TOTAL CHARGE = -0.000299994 e
Info: MASS DENSITY = 0.952032 g/cm^3
Info: ATOM DENSITY = 0.0956522 atoms/A^3
Info: ADDED 0 IMPLICIT EXCLUSIONS
Info: NONBONDED TABLE R-SQUARED SPACING: 0.0625
Info: NONBONDED TABLE SIZE: 705 POINTS
Info: REMOVING COM VELOCITY 0.0400343 -0.102039 0.0578974
Info: Use 3D box decompostion in PME FFT.
Info: Updated CUDA force table with 4096 elements.
Info: Updated CUDA LJ table with 6 x 6 elements.
Info: Found 37 unique exclusion lists needing 168 bytes
TCL: Running for 1500000 steps
ETITLE: TS BOND ANGLE DIHED IMPRP ELECT VDW BOUNDARY MISC KINETIC TOTAL TEMP POTENTIAL TOTALAVG TEMPAVG PRESSURE GPRESSURE VOLUME PRESSAVG GPRESSAVG
ENERGY: 0 3.7799 16.9328 12.4499 0.0000 -10509.0567 1362.1602 0.0000 0.0000 1743.6494 -7370.0844 299.5713 -9113.7338 -7370.0844 299.5713 -669.9157 -587.3249 30558.6417 -669.9157 -587.3249
ENERGY: 300000 2.3612 16.7171 8.0520 0.0000 -10384.5379 1333.1531 0.0000 0.0000 1696.4792 -7327.7752 291.4671 -9024.2544 -7333.6463 296.4832 -473.0704 -398.0020 30629.3343 -274.6739 -190.9994
ENERGY: 600000 0.7875 15.0215 8.4436 0.0000 -10494.7797 1378.6187 0.0000 0.0000 1760.4240 -7331.4845 302.4533 -9091.9085 -7330.0887 298.0767 116.7201 134.1353 29845.9846 -18.3653 45.3825
ENERGY: 900000 4.8491 20.2359 9.0557 0.0000 -10542.3279 1470.3115 0.0000 0.0000 1785.0553 -7252.8203 306.6851 -9037.8756 -7331.3681 298.2303 498.8920 604.8978 30404.8614 -27.3716 44.8305
ENERGY: 1200000 3.6905 15.7581 9.1895 0.0000 -10446.2218 1370.6319 0.0000 0.0000 1729.6105 -7317.3414 297.1593 -9046.9519 -7332.5691 299.2381 -389.0446 -294.0477 30473.7289 -54.0063 22.4711
ENERGY: 1500000 2.4441 17.4048 8.2775 0.0000 -10476.3623 1358.3908 0.0000 0.0000 1703.1853 -7386.6599 292.6193 -9089.8453 -7342.4533 299.1211 -310.6451 -275.4963 29953.4197 -94.1828 -18.9257
TCL: Running FEP window   2: Lambda1 0.95   Lambda2 0.8999999999999999 [dLambda -0.050000000000000044]
TCL: Setting parameter firsttimestep to 0
TCL: Setting parameter alchLambda to 0.95
Info: NONBONDED TABLE R-SQUARED SPACING: 0.0625
Info: NONBONDED TABLE SIZE: 705 POINTS
TCL: Setting parameter alchLambda2 to 0.8999999999999999
Info: NONBONDED TABLE R-SQUARED SPACING: 0.0625
Info: NONBONDED TABLE SIZE: 705 POINTS
TCL: Running for 1500000 steps
ETITLE: TS BOND ANGLE DIHED IMPRP ELECT VDW BOUNDARY MISC KINETIC TOTAL TEMP POTENTIAL TOTALAVG TEMPAVG PRESSURE GPRESSURE VOLUME PRESSAVG GPRESSAVG
ENERGY: 0 2.4441 17.4048 8.2775 0.0000 -10475.4524 1358.5377 0.0000 0.0000 1702.3361 -7386.4523 292.4734 -9088.7883 -7386.4523 292.4734 -378.3312 -295.6507 29953.4197 -378.3312 -295.6507
ENERGY: 300000 2.3422 14.6367 8.7827 0.0000 -10497.3097 1401.6748 0.0000 0.0000 1760.8363 -7309.0371 302.5241 -9069.8734 -7372.4974 295.1021 -128.4564 -34.2790 30114.1509 -474.8273 -418.4355
ENERGY: 600000 3.1890 18.5384 9.6119 0.0000 -10346.7404 1344.7184 0.0000 0.0000 1774.2492 -7196.4335 304.8286 -8970.6828 -7353.5034 297.2795 -247.7714 -173.7257 30755.0206 -321.6510 -256.1355
ENERGY: 900000 5.5494 15.7407 9.7679 0.0000 -10447.1134 1313.2150 0.0000 0.0000 1748.4300 -7354.4103 300.3926 -9102.8403 -7353.6457 296.4762 -803.9410 -734.4007 30050.9320 -326.2786 -258.4113
ENERGY: 1200000 3.9487 13.2362 8.2680 0.0000 -10610.4701 1483.8847 0.0000 0.0000 1718.3868 -7382.7458 295.2310 -9101.1325 -7355.2263 296.4982 556.3773 624.7609 30409.6053 -321.6160 -253.9859
ENERGY: 1500000 2.3583 19.0925 8.9248 0.0000 -10656.3591 1501.8250 0.0000 0.0000 1717.4666 -7406.6918 295.0729 -9124.1584 -7351.9687 296.8948 565.1886 634.5914 29825.7389 -213.3823 -142.4528
TCL: Running FEP window   3: Lambda1 0.8999999999999999 Lambda2 0.8499999999999999 [dLambda -0.050000000000000044]
TCL: Setting parameter firsttimestep to 0
TCL: Setting parameter alchLambda to 0.8999999999999999
Info: NONBONDED TABLE R-SQUARED SPACING: 0.0625
Info: NONBONDED TABLE SIZE: 705 POINTS
TCL: Setting parameter alchLambda2 to 0.8499999999999999
Info: NONBONDED TABLE R-SQUARED SPACING: 0.0625
Info: NONBONDED TABLE SIZE: 705 POINTS
TCL: Running for 1500000 steps
ETITLE: TS BOND ANGLE DIHED IMPRP ELECT VDW BOUNDARY MISC KINETIC TOTAL TEMP POTENTIAL TOTALAVG TEMPAVG PRESSURE GPRESSURE VOLUME PRESSAVG GPRESSAVG
ENERGY: 0 2.3583 19.0925 8.9248 0.0000 -10655.1330 1501.7984 0.0000 0.0000 1716.6065 -7406.3525 294.9251 -9122.9590 -7406.3525 294.9251 538.0183 616.7752 29825.7389 538.0183 616.7752
ENERGY: 300000 5.8044 12.0839 7.8106 0.0000 -10444.4930 1384.3744 0.0000 0.0000 1699.7366 -7334.6830 292.0268 -9034.4196 -7367.0607 295.0985 -58.4075 9.5176 30129.0725 -67.6089 37.0569
ENERGY: 600000 2.5232 18.9456 9.9747 0.0000 -10555.9819 1403.8809 0.0000 0.0000 1758.5917 -7362.0659 302.1385 -9120.6575 -7348.7754 297.8785 -183.4192 -159.4027 30416.9659 -304.3449 -219.2844
ENERGY: 900000 4.2440 17.2934 11.1334 0.0000 -10597.2725 1478.6330 0.0000 0.0000 1767.3156 -7318.6531 303.6373 -9085.9687 -7340.6360 299.5801 855.9375 923.5399 29863.4587 -236.7348 -156.4088
ENERGY: 1200000 3.3478 15.1889 8.3583 0.0000 -10402.8267 1291.8615 0.0000 0.0000 1731.0737 -7352.9965 297.4107 -9084.0702 -7348.5552 298.5341 -1084.6340 -991.5376 30179.3334 -223.9123 -142.5817
ENERGY: 1500000 3.7660 20.9795 8.7061 0.0000 -10449.8801 1329.2482 0.0000 0.0000 1819.8911 -7267.2892 312.6702 -9087.1803 -7343.8366 299.4037 -846.5391 -745.9569 30619.8068 -239.4082 -160.2144
TCL: Running FEP window   4: Lambda1 0.8499999999999999 Lambda2 0.7999999999999998 [dLambda -0.050000000000000044]
TCL: Setting parameter firsttimestep to 0
TCL: Setting parameter alchLambda to 0.8499999999999999
Info: NONBONDED TABLE R-SQUARED SPACING: 0.0625
Info: NONBONDED TABLE SIZE: 705 POINTS
TCL: Setting parameter alchLambda2 to 0.7999999999999998
Info: NONBONDED TABLE R-SQUARED SPACING: 0.0625
Info: NONBONDED TABLE SIZE: 705 POINTS
TCL: Running for 1500000 steps
ETITLE: TS BOND ANGLE DIHED IMPRP ELECT VDW BOUNDARY MISC KINETIC TOTAL TEMP POTENTIAL TOTALAVG TEMPAVG PRESSURE GPRESSURE VOLUME PRESSAVG GPRESSAVG
ENERGY: 0 3.7660 20.9795 8.7061 0.0000 -10449.0134 1330.0644 0.0000 0.0000 1819.0346 -7266.4628 312.5230 -9085.4975 -7266.4628 312.5230 -832.3698 -748.4541 30619.8068 -832.3698 -748.4541
ENERGY: 300000 3.5329 16.0467 10.4222 0.0000 -10466.5602 1447.1903 0.0000 0.0000 1803.4317 -7185.9363 309.8423 -8989.3680 -7303.3582 303.7133 70.9500 207.3558 30825.3523 -280.4745 -188.3062
ENERGY: 600000 2.0900 15.6976 8.2595 0.0000 -10483.6744 1376.9677 0.0000 0.0000 1694.3002 -7386.3595 291.0927 -9080.6597 -7312.4986 302.2141 -628.5570 -553.6628 31036.0818 -137.4031 -53.3494
ENERGY: 900000 1.1104 17.6733 10.6333 0.0000 -10512.0333 1377.1611 0.0000 0.0000 1788.3088 -7317.1463 307.2441 -9105.4551 -7317.0159 301.8754 -411.9932 -307.3742 30402.9078 -25.3882 53.3312
ENERGY: 1200000 2.4050 12.9833 8.4062 0.0000 -10572.3790 1472.5828 0.0000 0.0000 1689.2826 -7386.7191 290.2307 -9076.0017 -7324.5110 301.1385 763.0856 844.8802 29664.0899 -0.9161 74.3609
ENERGY: 1500000 2.9179 16.5061 11.3793 0.0000 -10563.7589 1429.8287 0.0000 0.0000 1729.1313 -7373.9956 297.0770 -9103.1269 -7329.3620 301.3991 -201.2313 -140.5845 30558.6782 -7.4888 64.8146
TCL: Running FEP window   5: Lambda1 0.7999999999999998 Lambda2 0.7499999999999998 [dLambda -0.050000000000000044]
TCL: Setting parameter firsttimestep to 0
TCL: Setting parameter alchLambda to 0.7999999999999998
Info: NONBONDED TABLE R-SQUARED SPACING: 0.0625
Info: NONBONDED TABLE SIZE: 705 POINTS
TCL: Setting parameter alchLambda2 to 0.7499999999999998
Info: NONBONDED TABLE R-SQUARED SPACING: 0.0625
Info: NONBONDED TABLE SIZE: 705 POINTS
TCL: Running for 1500000 steps
ETITLE: TS BOND ANGLE DIHED IMPRP ELECT VDW BOUNDARY MISC KINETIC TOTAL TEMP POTENTIAL TOTALAVG TEMPAVG PRESSURE GPRESSURE VOLUME PRESSAVG GPRESSAVG
ENERGY: 0 2.9179 16.5061 11.3793 0.0000 -10562.1206 1428.9431 0.0000 0.0000 1728.2790 -7374.0951 296.9305 -9102.3742 -7374.0951 296.9305 -255.6449 -166.9331 30558.6782 -255.6449 -166.9331
ENERGY: 300000 3.7101 21.1815 9.3526 0.0000 -10448.0304 1328.1398 0.0000 0.0000 1755.9413 -7329.7051 301.6831 -9085.6464 -7362.9899 298.4320 -182.5034 -172.5992 29752.7802 -131.8632 -57.8197
ENERGY: 600000 1.3541 14.3610 9.5330 0.0000 -10637.6485 1483.8123 0.0000 0.0000 1721.8455 -7406.7426 295.8252 -9128.5880 -7340.1750 301.0643 566.8370 603.1736 30094.9109 -145.1325 -76.4542
ENERGY: 900000 4.0807 19.8140 8.4046 0.0000 -10473.4462 1318.5624 0.0000 0.0000 1748.8370 -7373.7477 300.4625 -9122.5846 -7361.2838 299.5065 -867.5393 -777.6495 30332.1218 -197.2103 -128.2737
ENERGY: 1200000 2.3065 15.2599 7.2549 0.0000 -10617.8173 1478.7839 0.0000 0.0000 1754.9312 -7359.2808 301.5096 -9114.2121 -7346.4306 300.3679 643.7140 671.7956 29875.4500 -90.1199 -29.2100
ENERGY: 1500000 1.6806 10.7121 8.1564 0.0000 -10559.6073 1463.2544 0.0000 0.0000 1677.9886 -7397.8152 288.2903 -9075.8038 -7353.0607 299.2986 525.6620 551.1856 29816.8961 -26.4902 31.6753
TCL: Running FEP window   6: Lambda1 0.7499999999999998 Lambda2 0.6999999999999997 [dLambda -0.050000000000000044]
TCL: Setting parameter firsttimestep to 0
TCL: Setting parameter alchLambda to 0.7499999999999998
Info: NONBONDED TABLE R-SQUARED SPACING: 0.0625
Info: NONBONDED TABLE SIZE: 705 POINTS
TCL: Setting parameter alchLambda2 to 0.6999999999999997
Info: NONBONDED TABLE R-SQUARED SPACING: 0.0625
Info: NONBONDED TABLE SIZE: 705 POINTS
TCL: Running for 1500000 steps
ETITLE: TS BOND ANGLE DIHED IMPRP ELECT VDW BOUNDARY MISC KINETIC TOTAL TEMP POTENTIAL TOTALAVG TEMPAVG PRESSURE GPRESSURE VOLUME PRESSAVG GPRESSAVG
ENERGY: 0 1.6806 10.7121 8.1564 0.0000 -10559.2781 1463.5824 0.0000 0.0000 1677.1644 -7397.9822 288.1487 -9075.1466 -7397.9822 288.1487 446.4001 536.8665 29816.8961 446.4001 536.8665
ENERGY: 300000 2.8933 18.8030 8.6349 0.0000 -10520.8708 1393.9810 0.0000 0.0000 1791.7518 -7304.8068 307.8356 -9096.5586 -7348.7788 298.3154 -224.8515 -198.3852 30217.8832 194.6295 248.6593
ENERGY: 600000 2.8143 18.4782 12.1201 0.0000 -10456.6165 1387.4990 0.0000 0.0000 1761.3255 -7274.3795 302.6082 -9035.7050 -7333.7324 300.2955 -4.2366 61.0141 29936.6409 238.0200 292.0650
ENERGY: 900000 4.1788 17.6138 11.7467 0.0000 -10427.8036 1365.4475 0.0000 0.0000 1715.1792 -7313.6376 294.6799 -9028.8168 -7337.9733 298.6966 -324.9903 -267.8699 30198.4556 79.4261 136.8038
ENERGY: 1200000 2.5824 18.3059 7.2156 0.0000 -10492.1343 1401.1133 0.0000 0.0000 1808.2195 -7254.6976 310.6649 -9062.9171 -7321.0586 300.0134 266.8027 264.2648 29888.6560 135.3730 189.1286
ENERGY: 1500000 5.9738 18.1082 8.9213 0.0000 -10438.0712 1360.1656 0.0000 0.0000 1760.2446 -7284.6577 302.4225 -9044.9023 -7315.0920 300.4339 -470.8822 -402.9779 30028.0069 6.0187 62.9261
TCL: Running FEP window   7: Lambda1 0.6999999999999997 Lambda2 0.6499999999999997 [dLambda -0.050000000000000044]
TCL: Setting parameter firsttimestep to 0
TCL: Setting parameter alchLambda to 0.6999999999999997
Info: NONBONDED TABLE R-SQUARED SPACING: 0.0625
Info: NONBONDED TABLE SIZE: 705 POINTS
TCL: Setting parameter alchLambda2 to 0.6499999999999997
Info: NONBONDED TABLE R-SQUARED SPACING: 0.0625
Info: NONBONDED TABLE SIZE: 705 POINTS
TCL: Running for 1500000 steps
ETITLE: TS BOND ANGLE DIHED IMPRP ELECT VDW BOUNDARY MISC KINETIC TOTAL TEMP POTENTIAL TOTALAVG TEMPAVG PRESSURE GPRESSURE VOLUME PRESSAVG GPRESSAVG
ENERGY: 0 5.9738 18.1082 8.9213 0.0000 -10437.3590 1361.1947 0.0000 0.0000 1759.3769 -7283.7840 302.2734 -9043.1609 -7283.7840 302.2734 -484.1424 -404.3522 30028.0069 -484.1424 -404.3522
ENERGY: 300000 1.5626 19.4562 9.5622 0.0000 -10616.1163 1425.8865 0.0000 0.0000 1775.3784 -7384.2704 305.0226 -9159.6488 -7349.7964 303.3775 -274.2658 -146.7467 30162.0069 -443.1154 -347.3121
ENERGY: 600000 6.1985 16.1798 8.1825 0.0000 -10549.2805 1401.9098 0.0000 0.0000 1732.4998 -7384.3100 297.6557 -9116.8099 -7360.6410 302.0216 -216.7720 -172.8592 30050.2375 -203.8923 -109.9418
ENERGY: 900000 3.5894 16.6163 11.1724 0.0000 -10646.2970 1475.2474 0.0000 0.0000 1777.6653 -7362.0063 305.4155 -9139.6716 -7358.7337 301.9102 533.1398 575.5443 29882.5278 -102.5861 -28.6039
ENERGY: 1200000 6.4394 14.1977 9.8138 0.0000 -10518.0725 1408.0191 0.0000 0.0000 1703.2044 -7376.3980 292.6226 -9079.6025 -7353.4658 301.6605 -135.0854 -61.4804 30167.3843 -51.7769 23.4597
ENERGY: 1500000 2.3949 16.0470 7.4260 0.0000 -10426.9501 1350.2894 0.0000 0.0000 1762.7957 -7287.9970 302.8607 -9050.7927 -7347.7996 300.2401 -438.0176 -394.5694 30283.8319 -51.6744 19.1950
TCL: Running FEP window   8: Lambda1 0.6499999999999997 Lambda2 0.5999999999999996 [dLambda -0.050000000000000044]
TCL: Setting parameter firsttimestep to 0
TCL: Setting parameter alchLambda to 0.6499999999999997
Info: NONBONDED TABLE R-SQUARED SPACING: 0.0625
Info: NONBONDED TABLE SIZE: 705 POINTS
TCL: Setting parameter alchLambda2 to 0.5999999999999996
Info: NONBONDED TABLE R-SQUARED SPACING: 0.0625
Info: NONBONDED TABLE SIZE: 705 POINTS
TCL: Running for 1500000 steps
ETITLE: TS BOND ANGLE DIHED IMPRP ELECT VDW BOUNDARY MISC KINETIC TOTAL TEMP POTENTIAL TOTALAVG TEMPAVG PRESSURE GPRESSURE VOLUME PRESSAVG GPRESSAVG
ENERGY: 0 2.3949 16.0470 7.4260 0.0000 -10426.6530 1350.9913 0.0000 0.0000 1761.8799 -7287.9138 302.7034 -9049.7937 -7287.9138 302.7034 -490.3445 -402.4370 30283.8319 -490.3445 -402.4370
ENERGY: 300000 2.4515 12.0261 7.5104 0.0000 -10494.8826 1439.1644 0.0000 0.0000 1767.4584 -7266.2718 303.6618 -9033.7302 -7292.6935 301.9290 400.5429 419.3777 29910.0741 -16.6791 42.8515
ENERGY: 600000 4.1826 17.7515 8.7099 0.0000 -10410.4195 1362.6040 0.0000 0.0000 1727.8455 -7289.3261 296.8561 -9017.1716 -7306.4540 300.1297 -663.7541 -564.3181 30600.3567 -144.3836 -85.2297
ENERGY: 900000 4.3729 16.6005 11.2593 0.0000 -10456.9389 1337.0566 0.0000 0.0000 1765.8377 -7321.8119 303.3834 -9087.6496 -7302.7237 301.6368 -204.6709 -170.0334 29287.3254 -78.1225 -23.7706
ENERGY: 1200000 3.3870 9.9094 9.1724 0.0000 -10551.5819 1469.7083 0.0000 0.0000 1725.4467 -7333.9580 296.4439 -9059.4048 -7316.8537 300.5150 343.0252 390.6434 30251.3844 -97.3450 -37.8796
ENERGY: 1500000 3.6248 13.0482 8.7725 0.0000 -10530.6678 1422.8784 0.0000 0.0000 1731.2513 -7351.0926 297.4412 -9082.3439 -7314.8333 300.8473 -107.8527 -15.2265 30144.0061 -90.3757 -31.8387
TCL: Running FEP window   9: Lambda1 0.5999999999999996 Lambda2 0.5499999999999996 [dLambda -0.050000000000000044]
TCL: Setting parameter firsttimestep to 0
TCL: Setting parameter alchLambda to 0.5999999999999996
Info: NONBONDED TABLE R-SQUARED SPACING: 0.0625
Info: NONBONDED TABLE SIZE: 705 POINTS
TCL: Setting parameter alchLambda2 to 0.5499999999999996
Info: NONBONDED TABLE R-SQUARED SPACING: 0.0625
Info: NONBONDED TABLE SIZE: 705 POINTS
TCL: Running for 1500000 steps
ETITLE: TS BOND ANGLE DIHED IMPRP ELECT VDW BOUNDARY MISC KINETIC TOTAL TEMP POTENTIAL TOTALAVG TEMPAVG PRESSURE GPRESSURE VOLUME PRESSAVG GPRESSAVG
ENERGY: 0 3.6248 13.0482 8.7725 0.0000 -10530.3674 1423.4980 0.0000 0.0000 1730.3681 -7351.0559 297.2895 -9081.4240 -7351.0559 297.2895 -97.3565 -22.0719 30144.0061 -97.3565 -22.0719
ENERGY: 300000 3.9213 16.4532 9.2002 0.0000 -10575.1248 1523.0226 0.0000 0.0000 1788.8967 -7233.6307 307.3451 -9022.5275 -7305.8341 300.7365 1258.3055 1322.7671 29939.5440 516.5815 570.1674
ENERGY: 600000 2.8787 16.8229 8.2830 0.0000 -10463.5223 1369.9289 0.0000 0.0000 1701.1994 -7364.4094 292.2781 -9065.6088 -7307.5493 300.4990 -121.6029 -111.5408 29810.7579 150.2204 180.4929
ENERGY: 900000 3.4683 18.5084 10.0733 0.0000 -10472.9558 1378.2056 0.0000 0.0000 1743.8834 -7318.8167 299.6115 -9062.7001 -7306.7771 300.6247 -237.6553 -174.3661 29826.1890 96.4664 129.1605
ENERGY: 1200000 2.4893 19.4133 8.5864 0.0000 -10539.4052 1385.1843 0.0000 0.0000 1756.4904 -7367.2415 301.7775 -9123.7319 -7306.1208 300.9229 -323.9296 -325.2370 29968.3557 107.4585 138.9308
ENERGY: 1500000 3.3910 13.5008 12.9043 0.0000 -10538.0663 1411.0672 0.0000 0.0000 1749.8441 -7347.3590 300.6356 -9097.2031 -7313.4523 300.5079 135.7238 180.5173 29952.6589 63.4403 98.4282
TCL: Running FEP window  10: Lambda1 0.5499999999999996 Lambda2 0.4999999999999996 [dLambda -0.04999999999999999]
TCL: Setting parameter firsttimestep to 0
TCL: Setting parameter alchLambda to 0.5499999999999996
Info: NONBONDED TABLE R-SQUARED SPACING: 0.0625
Info: NONBONDED TABLE SIZE: 705 POINTS
TCL: Setting parameter alchLambda2 to 0.4999999999999996
Info: NONBONDED TABLE R-SQUARED SPACING: 0.0625
Info: NONBONDED TABLE SIZE: 705 POINTS
TCL: Running for 1500000 steps
ETITLE: TS BOND ANGLE DIHED IMPRP ELECT VDW BOUNDARY MISC KINETIC TOTAL TEMP POTENTIAL TOTALAVG TEMPAVG PRESSURE GPRESSURE VOLUME PRESSAVG GPRESSAVG
ENERGY: 0 3.3910 13.5008 12.9043 0.0000 -10538.0184 1411.7283 0.0000 0.0000 1748.9668 -7347.5272 300.4849 -9096.4941 -7347.5272 300.4849 94.2967 173.7893 29952.6589 94.2967 173.7893
ENERGY: 300000 4.8425 17.1744 9.0088 0.0000 -10462.6503 1384.5396 0.0000 0.0000 1775.8688 -7271.2161 305.1068 -9047.0849 -7291.5277 303.0459 -253.3074 -200.3729 29997.6964 -486.9028 -429.2483
ENERGY: 600000 3.3343 13.4643 9.3716 0.0000 -10552.0956 1399.3280 0.0000 0.0000 1758.0009 -7368.5965 302.0370 -9126.5974 -7326.0204 299.8257 -239.8078 -145.9600 29894.7867 -310.4821 -250.4001
ENERGY: 900000 5.1367 15.1983 11.8329 0.0000 -10583.9262 1414.0177 0.0000 0.0000 1777.9565 -7359.7841 305.4655 -9137.7406 -7336.0873 300.6476 -23.2382 -10.0159 29725.8514 -219.4368 -154.7999
ENERGY: 1200000 2.9064 11.2473 10.1878 0.0000 -10471.1969 1430.7813 0.0000 0.0000 1753.4323 -7262.6419 301.2521 -9016.0742 -7320.3771 301.3103 183.1911 307.4916 30307.5297 -56.9730 12.9123
ENERGY: 1500000 3.6365 22.2174 9.2796 0.0000 -10576.8067 1445.0832 0.0000 0.0000 1758.9816 -7337.6085 302.2055 -9096.5901 -7324.5542 301.0087 81.2427 179.3755 29892.2524 -59.8562 10.7330
TCL: Running FEP window  11: Lambda1 0.4999999999999996 Lambda2 0.4499999999999996 [dLambda -0.04999999999999999]
TCL: Setting parameter firsttimestep to 0
TCL: Setting parameter alchLambda to 0.4999999999999996
Info: NONBONDED TABLE R-SQUARED SPACING: 0.0625
Info: NONBONDED TABLE SIZE: 705 POINTS
TCL: Setting parameter alchLambda2 to 0.4499999999999996
Info: NONBONDED TABLE R-SQUARED SPACING: 0.0625
Info: NONBONDED TABLE SIZE: 705 POINTS
TCL: Running for 1500000 steps
ETITLE: TS BOND ANGLE DIHED IMPRP ELECT VDW BOUNDARY MISC KINETIC TOTAL TEMP POTENTIAL TOTALAVG TEMPAVG PRESSURE GPRESSURE VOLUME PRESSAVG GPRESSAVG
ENERGY: 0 3.6365 22.2174 9.2796 0.0000 -10576.6082 1445.9949 0.0000 0.0000 1758.1165 -7337.3634 302.0568 -9095.4799 -7337.3634 302.0568 93.0781 174.0229 29892.2524 93.0781 174.0229
ENERGY: 300000 4.4198 12.6730 7.9015 0.0000 -10396.5661 1411.9182 0.0000 0.0000 1719.5693 -7240.0843 295.4342 -8959.6536 -7288.4449 298.8885 349.6126 404.7038 30186.7659 115.8158 172.4330
ENERGY: 600000 3.8838 13.2089 9.1940 0.0000 -10651.2961 1467.8889 0.0000 0.0000 1739.5675 -7417.5531 298.8700 -9157.1206 -7335.7919 298.8047 166.1467 184.1947 29663.5485 139.3627 184.7523
ENERGY: 900000 3.7386 11.4188 8.6906 0.0000 -10496.6339 1424.9030 0.0000 0.0000 1689.6992 -7358.1838 290.3023 -9047.8830 -7342.6152 298.4019 387.7111 477.8069 29689.7932 58.5818 112.7493
ENERGY: 1200000 3.3630 16.0044 9.6632 0.0000 -10481.6771 1351.5795 0.0000 0.0000 1758.1264 -7342.9407 302.0585 -9101.0670 -7336.4442 299.6441 -538.5138 -493.9093 30012.2836 -69.9188 -12.7324
ENERGY: 1500000 1.3330 15.6085 10.4576 0.0000 -10497.5032 1381.6855 0.0000 0.0000 1709.0973 -7379.3213 293.6350 -9088.4187 -7335.1077 299.8396 -203.5038 -123.7107 29760.4579 -64.7769 -5.5719
TCL: Running FEP window  12: Lambda1 0.4499999999999996 Lambda2 0.39999999999999963 [dLambda -0.04999999999999999]
TCL: Setting parameter firsttimestep to 0
TCL: Setting parameter alchLambda to 0.4499999999999996
Info: NONBONDED TABLE R-SQUARED SPACING: 0.0625
Info: NONBONDED TABLE SIZE: 705 POINTS
TCL: Setting parameter alchLambda2 to 0.39999999999999963
Info: NONBONDED TABLE R-SQUARED SPACING: 0.0625
Info: NONBONDED TABLE SIZE: 705 POINTS
TCL: Running for 1500000 steps
ETITLE: TS BOND ANGLE DIHED IMPRP ELECT VDW BOUNDARY MISC KINETIC TOTAL TEMP POTENTIAL TOTALAVG TEMPAVG PRESSURE GPRESSURE VOLUME PRESSAVG GPRESSAVG
ENERGY: 0 1.3330 15.6085 10.4576 0.0000 -10497.5037 1381.5739 0.0000 0.0000 1708.2560 -7380.2748 293.4904 -9088.5307 -7380.2748 293.4904 -216.1164 -137.4134 29760.4579 -216.1164 -137.4134
ENERGY: 300000 6.6453 13.3529 8.9942 0.0000 -10441.5875 1343.5049 0.0000 0.0000 1691.0042 -7378.0859 290.5265 -9069.0901 -7360.9201 293.2842 -765.2290 -700.8987 30286.9644 -214.7340 -166.8196
ENERGY: 600000 3.4883 14.9266 9.5608 0.0000 -10525.4038 1483.8485 0.0000 0.0000 1691.4199 -7322.1597 290.5979 -9013.5796 -7352.1430 293.8450 456.8117 533.9354 29997.3564 -166.3643 -108.9244
ENERGY: 900000 5.5261 12.5738 9.0678 0.0000 -10721.1880 1600.9397 0.0000 0.0000 1780.5995 -7312.4810 305.9196 -9093.0805 -7355.9040 295.1261 1636.8356 1719.5496 29472.3968 -50.5783 1.7579
ENERGY: 1200000 2.2614 15.2728 10.8591 0.0000 -10616.4712 1491.3413 0.0000 0.0000 1743.4071 -7353.3296 299.5297 -9096.7367 -7358.2656 296.3766 672.9931 733.4663 29745.2937 -19.3172 30.4538
ENERGY: 1500000 3.2937 17.9104 10.5413 0.0000 -10626.0883 1455.9996 0.0000 0.0000 1744.9342 -7393.4092 299.7920 -9138.3434 -7356.5964 297.4775 106.1938 156.8323 30426.0439 8.1041 60.6017
TCL: Running FEP window  13: Lambda1 0.39999999999999963 Lambda2 0.34999999999999964 [dLambda -0.04999999999999999]
TCL: Setting parameter firsttimestep to 0
TCL: Setting parameter alchLambda to 0.39999999999999963
Info: NONBONDED TABLE R-SQUARED SPACING: 0.0625
Info: NONBONDED TABLE SIZE: 705 POINTS
TCL: Setting parameter alchLambda2 to 0.34999999999999964
Info: NONBONDED TABLE R-SQUARED SPACING: 0.0625
Info: NONBONDED TABLE SIZE: 705 POINTS
TCL: Running for 1500000 steps
ETITLE: TS BOND ANGLE DIHED IMPRP ELECT VDW BOUNDARY MISC KINETIC TOTAL TEMP POTENTIAL TOTALAVG TEMPAVG PRESSURE GPRESSURE VOLUME PRESSAVG GPRESSAVG
ENERGY: 0 3.2937 17.9104 10.5413 0.0000 -10626.0900 1456.2137 0.0000 0.0000 1744.1023 -7394.0287 299.6491 -9138.1310 -7394.0287 299.6491 80.1643 150.5077 30426.0439 80.1643 150.5077
ENERGY: 300000 5.7980 15.2150 8.8895 0.0000 -10452.0666 1321.8899 0.0000 0.0000 1654.0113 -7446.2629 284.1708 -9100.2742 -7379.8346 297.4993 -1050.3826 -972.5416 29902.8629 -349.9139 -289.9111
ENERGY: 600000 5.8338 16.0877 8.7494 0.0000 -10525.8816 1404.7603 0.0000 0.0000 1753.7125 -7336.7377 301.3002 -9090.4503 -7355.5895 298.1886 43.6886 62.2598 29680.6303 -348.2425 -279.0763
ENERGY: 900000 3.1257 14.7241 9.6817 0.0000 -10481.2972 1404.8681 0.0000 0.0000 1754.7135 -7294.1840 301.4722 -9048.8975 -7342.9941 299.1853 95.3078 139.3292 29692.4410 -330.7239 -260.3775
ENERGY: 1200000 3.7148 15.9888 7.7003 0.0000 -10642.5078 1493.5074 0.0000 0.0000 1759.8008 -7361.7957 302.3462 -9121.5964 -7345.9368 299.7203 699.8599 777.7664 29620.9200 -227.4411 -160.4350
ENERGY: 1500000 1.4351 9.7224 11.6148 0.0000 -10473.7241 1416.5461 0.0000 0.0000 1752.7095 -7281.6962 301.1279 -9034.4057 -7340.5781 299.9322 185.4766 196.2315 30026.9390 -160.5135 -98.0187
TCL: Running FEP window  14: Lambda1 0.34999999999999964 Lambda2 0.29999999999999966 [dLambda -0.04999999999999999]
TCL: Setting parameter firsttimestep to 0
TCL: Setting parameter alchLambda to 0.34999999999999964
Info: NONBONDED TABLE R-SQUARED SPACING: 0.0625
Info: NONBONDED TABLE SIZE: 705 POINTS
TCL: Setting parameter alchLambda2 to 0.29999999999999966
Info: NONBONDED TABLE R-SQUARED SPACING: 0.0625
Info: NONBONDED TABLE SIZE: 705 POINTS
TCL: Running for 1500000 steps
ETITLE: TS BOND ANGLE DIHED IMPRP ELECT VDW BOUNDARY MISC KINETIC TOTAL TEMP POTENTIAL TOTALAVG TEMPAVG PRESSURE GPRESSURE VOLUME PRESSAVG GPRESSAVG
ENERGY: 0 1.4351 9.7224 11.6148 0.0000 -10473.7245 1416.0900 0.0000 0.0000 1751.8141 -7283.0480 300.9740 -9034.8621 -7283.0480 300.9740 116.1217 181.3398 30026.9390 116.1217 181.3398
ENERGY: 300000 3.6951 18.6569 8.9276 0.0000 -10588.8498 1451.6718 0.0000 0.0000 1769.3789 -7336.5195 303.9918 -9105.8984 -7319.0617 301.5844 156.9154 194.9355 29879.0363 73.0833 132.9633
ENERGY: 600000 4.6339 20.2077 9.9358 0.0000 -10529.3086 1422.8529 0.0000 0.0000 1704.6467 -7367.0314 292.8703 -9071.6781 -7335.2070 302.4139 4.8583 45.3763 29896.3402 -34.5707 15.1202
ENERGY: 900000 3.3542 21.1603 8.3205 0.0000 -10597.2728 1496.9299 0.0000 0.0000 1751.8020 -7315.7059 300.9720 -9067.5079 -7328.8592 302.9853 898.1463 1013.6760 29364.4372 26.8745 94.0291
ENERGY: 1200000 4.2978 24.2692 8.6114 0.0000 -10517.6160 1409.0913 0.0000 0.0000 1815.0041 -7256.3421 311.8305 -9071.3461 -7321.0435 303.7638 -133.1800 -62.3193 29961.0376 -7.6940 62.1178
ENERGY: 1500000 3.2538 11.2576 11.5680 0.0000 -10531.2240 1377.8548 0.0000 0.0000 1754.3116 -7372.9782 301.4031 -9127.2898 -7324.5385 303.5862 -450.6223 -321.3263 29824.9966 -85.9235 -13.8112
TCL: Running FEP window  15: Lambda1 0.29999999999999966 Lambda2 0.24999999999999967 [dLambda -0.04999999999999999]
TCL: Setting parameter firsttimestep to 0
TCL: Setting parameter alchLambda to 0.29999999999999966
Info: NONBONDED TABLE R-SQUARED SPACING: 0.0625
Info: NONBONDED TABLE SIZE: 705 POINTS
TCL: Setting parameter alchLambda2 to 0.24999999999999967
Info: NONBONDED TABLE R-SQUARED SPACING: 0.0625
Info: NONBONDED TABLE SIZE: 705 POINTS
TCL: Running for 1500000 steps
ETITLE: TS BOND ANGLE DIHED IMPRP ELECT VDW BOUNDARY MISC KINETIC TOTAL TEMP POTENTIAL TOTALAVG TEMPAVG PRESSURE GPRESSURE VOLUME PRESSAVG GPRESSAVG
ENERGY: 0 3.2538 11.2576 11.5680 0.0000 -10531.2215 1378.3688 0.0000 0.0000 1753.4147 -7373.3584 301.2490 -9126.7732 -7373.3584 301.2490 -413.9298 -327.6583 29824.9966 -413.9298 -327.6583
ENERGY: 300000 2.6351 21.7676 9.4270 0.0000 -10693.2657 1445.9139 0.0000 0.0000 1744.2634 -7469.2587 299.6768 -9213.5221 -7391.8861 298.4790 -209.1421 -120.4592 29956.1065 -462.8557 -383.0996
ENERGY: 600000 4.1087 15.1435 11.7184 0.0000 -10599.5126 1449.9745 0.0000 0.0000 1785.8997 -7332.6679 306.8302 -9118.5676 -7355.9917 301.0773 215.3842 285.4260 29621.5784 -494.8183 -411.3517
ENERGY: 900000 2.7455 15.4576 9.8382 0.0000 -10517.8522 1400.2815 0.0000 0.0000 1809.5203 -7280.0090 310.8884 -9089.5293 -7346.0377 300.6559 182.2158 189.6083 29595.7503 -325.3096 -255.9097
ENERGY: 1200000 2.5424 15.7929 8.4912 0.0000 -10740.9861 1543.8666 0.0000 0.0000 1717.8738 -7452.4192 295.1429 -9170.2930 -7363.8578 299.9750 1005.2278 1013.2688 29342.9294 -103.5821 -46.4580
ENERGY: 1500000 2.2008 23.2605 9.3411 0.0000 -10411.2832 1394.7588 0.0000 0.0000 1741.5544 -7240.1676 299.2113 -8981.7220 -7352.7479 299.3755 -24.1407 7.0694 30168.1772 -102.2171 -40.8133
TCL: Running FEP window  16: Lambda1 0.24999999999999967 Lambda2 0.19999999999999968 [dLambda -0.04999999999999999]
TCL: Setting parameter firsttimestep to 0
TCL: Setting parameter alchLambda to 0.24999999999999967
Info: NONBONDED TABLE R-SQUARED SPACING: 0.0625
Info: NONBONDED TABLE SIZE: 705 POINTS
TCL: Setting parameter alchLambda2 to 0.19999999999999968
Info: NONBONDED TABLE R-SQUARED SPACING: 0.0625
Info: NONBONDED TABLE SIZE: 705 POINTS
TCL: Running for 1500000 steps
ETITLE: TS BOND ANGLE DIHED IMPRP ELECT VDW BOUNDARY MISC KINETIC TOTAL TEMP POTENTIAL TOTALAVG TEMPAVG PRESSURE GPRESSURE VOLUME PRESSAVG GPRESSAVG
ENERGY: 0 2.2007 23.2606 9.3411 0.0000 -10411.2849 1395.4597 0.0000 0.0000 1740.6891 -7240.3337 299.0627 -8981.0228 -7240.3337 299.0627 -71.2490 3.4944 30168.1772 -71.2490 3.4944
ENERGY: 300000 2.3534 19.7831 10.1829 0.0000 -10387.3875 1357.1705 0.0000 0.0000 1748.5117 -7249.3858 300.4067 -8997.8975 -7310.0412 298.8831 -164.7468 -157.1230 29983.7472 -270.4377 -204.5570
ENERGY: 600000 3.2635 15.9417 10.3028 0.0000 -10747.5631 1497.3752 0.0000 0.0000 1738.3316 -7482.3482 298.6577 -9220.6799 -7323.9143 299.5200 569.6024 666.6229 29470.5166 -37.1317 36.1480
ENERGY: 900000 3.5296 16.4854 9.1958 0.0000 -10487.3671 1387.6701 0.0000 0.0000 1743.4064 -7327.0797 299.5295 -9070.4861 -7325.2626 298.9477 -245.7166 -112.4866 29670.2387 -38.9073 36.6142
ENERGY: 1200000 1.9633 13.8465 7.0436 0.0000 -10668.8444 1498.1726 0.0000 0.0000 1757.2798 -7390.5386 301.9131 -9147.8184 -7324.4873 299.5746 650.1570 706.7546 29322.9408 -13.0709 63.1005
ENERGY: 1500000 4.1816 19.3566 9.3265 0.0000 -10451.9844 1392.2309 0.0000 0.0000 1763.4222 -7263.4667 302.9684 -9026.8888 -7326.4089 299.7875 -119.0757 -44.7704 30052.6268 -46.7090 32.5295
TCL: Running FEP window  17: Lambda1 0.19999999999999968 Lambda2 0.1499999999999997 [dLambda -0.04999999999999999]
TCL: Setting parameter firsttimestep to 0
TCL: Setting parameter alchLambda to 0.19999999999999968
Info: NONBONDED TABLE R-SQUARED SPACING: 0.0625
Info: NONBONDED TABLE SIZE: 705 POINTS
TCL: Setting parameter alchLambda2 to 0.1499999999999997
Info: NONBONDED TABLE R-SQUARED SPACING: 0.0625
Info: NONBONDED TABLE SIZE: 705 POINTS
TCL: Running for 1500000 steps
ETITLE: TS BOND ANGLE DIHED IMPRP ELECT VDW BOUNDARY MISC KINETIC TOTAL TEMP POTENTIAL TOTALAVG TEMPAVG PRESSURE GPRESSURE VOLUME PRESSAVG GPRESSAVG
ENERGY: 0 4.1816 19.3566 9.3265 0.0000 -10451.9838 1392.5355 0.0000 0.0000 1762.5529 -7264.0307 302.8190 -9026.5836 -7264.0307 302.8190 -116.7957 -48.2299 30052.6268 -116.7957 -48.2299
ENERGY: 300000 2.2672 17.4744 8.3182 0.0000 -10565.0050 1456.0169 0.0000 0.0000 1702.1038 -7378.8245 292.4335 -9080.9284 -7341.3541 296.6291 339.5142 371.1700 29788.9492 -27.1829 32.7849
ENERGY: 600000 2.7392 15.1847 9.8154 0.0000 -10391.9925 1358.6663 0.0000 0.0000 1801.6302 -7203.9568 309.5328 -9005.5870 -7338.8135 298.1900 -509.0605 -421.6732 30498.1852 -196.9749 -127.7550
ENERGY: 900000 3.5457 17.7828 9.7715 0.0000 -10581.6743 1433.6654 0.0000 0.0000 1730.6660 -7386.2428 297.3406 -9116.9088 -7319.9237 298.9122 16.3842 151.5140 29892.0505 -168.3226 -95.7144
ENERGY: 1200000 3.3471 12.7941 7.7354 0.0000 -10595.0124 1391.5627 0.0000 0.0000 1699.0807 -7480.4924 291.9141 -9179.5731 -7331.6436 298.5315 -611.2651 -528.9275 29803.5106 -220.8874 -149.9120
ENERGY: 1500000 2.6680 21.6682 10.5514 0.0000 -10567.8851 1398.4127 0.0000 0.0000 1760.6424 -7373.9424 302.4908 -9134.5847 -7326.8025 300.0407 -81.7915 57.1658 29343.8567 -217.4495 -147.1970
TCL: Running FEP window  18: Lambda1 0.1499999999999997 Lambda2 0.09999999999999969 [dLambda -0.05 ]
TCL: Setting parameter firsttimestep to 0
TCL: Setting parameter alchLambda to 0.1499999999999997
Info: NONBONDED TABLE R-SQUARED SPACING: 0.0625
Info: NONBONDED TABLE SIZE: 705 POINTS
TCL: Setting parameter alchLambda2 to 0.09999999999999969
Info: NONBONDED TABLE R-SQUARED SPACING: 0.0625
Info: NONBONDED TABLE SIZE: 705 POINTS
TCL: Running for 1500000 steps
ETITLE: TS BOND ANGLE DIHED IMPRP ELECT VDW BOUNDARY MISC KINETIC TOTAL TEMP POTENTIAL TOTALAVG TEMPAVG PRESSURE GPRESSURE VOLUME PRESSAVG GPRESSAVG
ENERGY: 0 2.6680 21.6682 10.5514 0.0000 -10567.8864 1397.3520 0.0000 0.0000 1759.7365 -7375.9103 302.3352 -9135.6468 -7375.9103 302.3352 -37.4343 46.5254 29343.8567 -37.4343 46.5254
ENERGY: 300000 5.9438 13.4660 10.3763 0.0000 -10482.8038 1388.6554 0.0000 0.0000 1720.8464 -7343.5159 295.6536 -9064.3623 -7357.2151 296.8394 -238.5332 -164.8456 29687.9233 -2.1361 89.2861
ENERGY: 600000 1.1513 20.5228 9.8842 0.0000 -10683.1363 1478.7003 0.0000 0.0000 1684.5072 -7488.3705 289.4102 -9172.8777 -7383.7832 296.3005 280.3258 351.0246 29671.6348 159.9999 246.0862
ENERGY: 900000 3.3589 13.4086 6.8285 0.0000 -10539.5688 1398.6308 0.0000 0.0000 1783.1577 -7334.1843 306.3591 -9117.3420 -7374.6610 297.4886 -296.0820 -194.4984 29806.4512 38.6896 122.1601
ENERGY: 1200000 3.0133 15.8121 8.1779 0.0000 -10599.7813 1423.6943 0.0000 0.0000 1789.2670 -7359.8168 307.4087 -9149.0838 -7364.5516 299.0784 -121.1268 -39.1375 29768.8150 55.5885 140.9097
ENERGY: 1500000 3.8787 25.2093 11.0046 0.0000 -10589.8514 1412.8678 0.0000 0.0000 1754.6866 -7382.2043 301.4676 -9136.8910 -7368.9678 299.1076 -263.8261 -324.0524 29760.6437 66.7004 133.0200
TCL: Running FEP window  19: Lambda1 0.09999999999999969 Lambda2 0.049999999999999684 [dLambda -0.05 ]
TCL: Setting parameter firsttimestep to 0
TCL: Setting parameter alchLambda to 0.09999999999999969
Info: NONBONDED TABLE R-SQUARED SPACING: 0.0625
Info: NONBONDED TABLE SIZE: 705 POINTS
TCL: Setting parameter alchLambda2 to 0.049999999999999684
Info: NONBONDED TABLE R-SQUARED SPACING: 0.0625
Info: NONBONDED TABLE SIZE: 705 POINTS
TCL: Running for 1500000 steps
ETITLE: TS BOND ANGLE DIHED IMPRP ELECT VDW BOUNDARY MISC KINETIC TOTAL TEMP POTENTIAL TOTALAVG TEMPAVG PRESSURE GPRESSURE VOLUME PRESSAVG GPRESSAVG
ENERGY: 0 3.8787 25.2093 11.0046 0.0000 -10589.8503 1412.7183 0.0000 0.0000 1753.7821 -7383.2573 301.3122 -9137.0394 -7383.2573 301.3122 -403.8190 -331.4851 29760.6437 -403.8190 -331.4851
ENERGY: 300000 3.8882 12.2000 8.0263 0.0000 -10424.3409 1314.1515 0.0000 0.0000 1815.9481 -7270.1268 311.9927 -9086.0750 -7301.2737 304.9726 -686.1777 -624.1300 29868.1437 -587.4574 -521.3152
ENERGY: 600000 2.5536 12.5026 10.1920 0.0000 -10341.5829 1344.8742 0.0000 0.0000 1680.3774 -7291.0830 288.7007 -8971.4604 -7311.9038 301.0451 -274.1078 -172.0612 29820.8396 -347.6202 -277.5940
ENERGY: 900000 4.0331 14.2650 10.8557 0.0000 -10503.0466 1381.9939 0.0000 0.0000 1745.6145 -7346.2846 299.9089 -9091.8990 -7331.3374 300.5942 -571.3628 -543.8882 29983.9222 -210.3391 -149.2270
ENERGY: 1200000 2.0495 17.0113 8.9409 0.0000 -10529.7949 1392.9624 0.0000 0.0000 1735.5377 -7373.2931 298.1776 -9108.8308 -7324.7869 300.2669 -380.2379 -347.0774 29756.4539 -143.1143 -85.9197
ENERGY: 1500000 2.8595 15.7974 12.1961 0.0000 -10388.5624 1354.0940 0.0000 0.0000 1742.8803 -7260.7351 299.4392 -9003.6155 -7324.6591 299.2074 -417.4261 -333.3584 29795.2658 -144.0913 -83.6947
TCL: Running FEP window  20: Lambda1 0.049999999999999684 Lambda2 0.0    [dLambda -0.049999999999999684]
TCL: Setting parameter firsttimestep to 0
TCL: Setting parameter alchLambda to 0.049999999999999684
Info: NONBONDED TABLE R-SQUARED SPACING: 0.0625
Info: NONBONDED TABLE SIZE: 705 POINTS
TCL: Setting parameter alchLambda2 to 0.0
Info: NONBONDED TABLE R-SQUARED SPACING: 0.0625
Info: NONBONDED TABLE SIZE: 705 POINTS
TCL: Running for 1500000 steps
ETITLE: TS BOND ANGLE DIHED IMPRP ELECT VDW BOUNDARY MISC KINETIC TOTAL TEMP POTENTIAL TOTALAVG TEMPAVG PRESSURE GPRESSURE VOLUME PRESSAVG GPRESSAVG
ENERGY: 0 2.8595 15.7974 12.1961 0.0000 -10388.5632 1353.5546 0.0000 0.0000 1741.9826 -7262.1731 299.2849 -9004.1557 -7262.1731 299.2849 -434.3347 -339.0555 29795.2658 -434.3347 -339.0555
ENERGY: 300000 4.9647 25.2785 8.4660 0.0000 -10526.3026 1419.8021 0.0000 0.0000 1743.9519 -7323.8394 299.6233 -9067.7912 -7328.3490 298.6584 -116.2051 -43.8070 29802.4029 -3.6943 62.0076
ENERGY: 600000 3.3649 15.0275 9.8255 0.0000 -10390.2520 1330.9829 0.0000 0.0000 1726.3231 -7304.7281 296.5945 -9031.0511 -7326.5055 298.6060 -539.0050 -433.0711 29939.3085 -250.2305 -195.8865
ENERGY: 900000 4.2373 12.5105 7.8578 0.0000 -10699.7527 1515.3731 0.0000 0.0000 1746.9934 -7412.7805 300.1458 -9159.7739 -7347.0139 298.1398 640.2057 680.5171 29459.1583 -151.4633 -95.6293
ENERGY: 1200000 6.0288 17.1321 9.5035 0.0000 -10510.8715 1390.4086 0.0000 0.0000 1755.1998 -7332.5987 301.5557 -9087.7985 -7339.4095 298.3994 -400.2690 -335.3966 29962.9093 -146.8684 -88.2499
ENERGY: 1500000 2.3761 17.7677 10.9372 0.0000 -10514.8908 1379.0122 0.0000 0.0000 1734.9978 -7369.7998 298.0849 -9104.7975 -7344.7275 298.3517 -349.8126 -349.5689 29616.9972 -160.9984 -104.4413
TCL: Exiting due to exit command.
