Info: SIMULATION PARAMETERS:
Info: TIMESTEP               2
Info: NUMBER OF STEPS        0
Info: STEPS PER CYCLE        10
Info: PERIODIC CELL BASIS 1  34.2421 0 0
Info: PERIODIC CELL BASIS 2  0 30.188 0
Info: PERIODIC CELL BASIS 3  0 0 29.2116
Info: PERIODIC CELL CENTER   0 0 0
Info: WRAPPING WATERS AROUND PERIODIC BOUNDARIES ON OUTPUT.
Info: WRAPPING ALL CLUSTERS AROUND PERIODIC BOUNDARIES ON OUTPUT.
Info: FIRST LDB TIMESTEP     50
Info: LAST LDB TIMESTEP     -1
Info: HOM BACKGROUND SCALING 1
Info: PME BACKGROUND SCALING 1
Info: MIN ATOMS PER PATCH    40
Info: EMPTY PATCH LOAD       40 ATOMS
Info: VELOCITY FILE          mobley_5880265_equil.vel
Info: CENTER OF MASS MOVING INITIALLY? NO
Info: DIELECTRIC             1
Info: EXCLUDE                SCALED ONE-FOUR
Info: 1-4 ELECTROSTATICS SCALED BY 0.833333
Info: MODIFIED 1-4 VDW PARAMETERS WILL BE USED
Info: DCD FILENAME           mobley_5880265_prod.dcd
Info: DCD FREQUENCY          100000
Info: DCD FIRST STEP         100000
Info: DCD FILE WILL CONTAIN UNIT CELL DATA
Info: XST FILENAME           mobley_5880265_prod.xst
Info: XST FREQUENCY          100000
Info: NO VELOCITY DCD OUTPUT
Info: NO FORCE DCD OUTPUT
Info: OUTPUT FILENAME        mobley_5880265_prod
Info: BINARY OUTPUT FILES WILL BE USED
Info: RESTART FILENAME       mobley_5880265_prod.restart
Info: RESTART FREQUENCY      100000
Info: BINARY RESTART FILES WILL BE USED
Info: CUTOFF                 9
Info: PAIRLIST DISTANCE      11
Info: PAIRLIST SHRINK RATE   0.01
Info: PAIRLIST GROW RATE     0.01
Info: PAIRLIST TRIGGER       0.3
Info: PAIRLISTS PER CYCLE    2
Info: PAIRLISTS ENABLED
Info: MARGIN                 2
Info: HYDROGEN GROUP CUTOFF  2.5
Info: PATCH DIMENSION        15.5
Info: ENERGY OUTPUT STEPS    100000
Info: ENERGY EVALUATION STEPS    100000
Info: OUTPUT ENERGY PRECISION 4
Info: CROSSTERM ENERGY INCLUDED IN DIHEDRAL
Info: TIMING OUTPUT STEPS    1000000
Info: PRESSURE OUTPUT STEPS  100000
Info: ALCHEMICAL FEP ON
Info: FEP CURRENT LAMBDA VALUE     1
Info: FEP COMPARISON LAMBDA VALUE  0.95
Info: FEP INTRA-ALCHEMICAL NON-BONDED INTERACTIONS WILL BE RETAINED
Info: FEP INTRA-ALCHEMICAL BONDED INTERACTIONS WILL BE RETAINED
Info: FEP VDW SHIFTING COEFFICIENT 5
Info: FEP ELEC. ACTIVE FOR ANNIHILATED PARTICLES BETWEEN LAMBDA = 0 AND LAMBDA = 0.5
Info: FEP ELEC. ACTIVE FOR EXNIHILATED PARTICLES BETWEEN LAMBDA = 0.5 AND LAMBDA = 1
Info: FEP VDW ACTIVE FOR ANNIHILATED PARTICLES BETWEEN LAMBDA = 0 AND LAMBDA = 1
Info: FEP VDW ACTIVE FOR EXNIHILATED PARTICLES BETWEEN LAMBDA = 0 AND LAMBDA = 1
Info: FEP BOND ACTIVE FOR ANNIHILATED PARTICLES BETWEEN LAMBDA = 1 AND LAMBDA = 1
Info: FEP BOND ACTIVE FOR EXNIHILATED PARTICLES BETWEEN LAMBDA = 0 AND LAMBDA = 0
Info: LANGEVIN DYNAMICS ACTIVE
Info: LANGEVIN TEMPERATURE   300
Info: LANGEVIN USING BBK INTEGRATOR
Info: LANGEVIN DAMPING COEFFICIENT IS 1 INVERSE PS
Info: LANGEVIN DYNAMICS APPLIED TO HYDROGENS
Info: LANGEVIN PISTON PRESSURE CONTROL ACTIVE
Info:        TARGET PRESSURE IS 1.01325 BAR
Info:     OSCILLATION PERIOD IS 50 FS
Info:             DECAY TIME IS 25 FS
Info:     PISTON TEMPERATURE IS 300 K
Info:       PRESSURE CONTROL IS GROUP-BASED
Info:    INITIAL STRAIN RATE IS 0.000318813 0.000318813 0.000318813
Info:       CELL FLUCTUATION IS ISOTROPIC
Info: PARTICLE MESH EWALD (PME) ACTIVE
Info: PME TOLERANCE               1e-06
Info: PME EWALD COEFFICIENT       0.348832
Info: PME INTERPOLATION ORDER     4
Info: PME GRID DIMENSIONS         36 32 32
Info: PME MAXIMUM GRID SPACING    1
Info: PME CALCULATION WILL BE PERFORMED ON GPU
Info: FULL ELECTROSTATIC EVALUATION FREQUENCY      2
Info: USING VERLET I (r-RESPA) MTS SCHEME.
Info: C1 SPLITTING OF LONG RANGE ELECTROSTATICS
Info: PLACING ATOMS IN PATCHES BY HYDROGEN GROUPS
Info: RIGID BONDS TO HYDROGEN : ALL
Info:         ERROR TOLERANCE : 1e-08
Info:          MAX ITERATIONS : 100
Info: RIGID WATER USING SETTLE ALGORITHM
Info: RANDOM NUMBER SEED     1744005864
Info: USE HYDROGEN BONDS?    NO
Info: Using AMBER format force field!
Info: AMBER PARM FILE        mobley_5880265.prmtop
Info: COORDINATE PDB         mobley_5880265.pdb
Info: Exclusions will be read from PARM file!
Info: SCNB (VDW SCALING)     2
Info: USING ARITHMETIC MEAN TO COMBINE L-J SIGMA PARAMETERS
Info: BINARY COORDINATES     mobley_5880265_equil.coor
Info: SUMMARY OF PARAMETERS:
Info: 8 BONDS
Info: 11 ANGLES
Info:   11 HARMONIC
Info:   0 COSINE-BASED
Info: 14 DIHEDRAL
Info: 0 IMPROPER
Info: 0 CROSSTERM
Info: 0 VDW
Info: 28 VDW_PAIRS
Info: 0 NBTHOLE_PAIRS
Info: To read alchdata from file: mobley_5880265.pdb
Info: To read alchflag data from column: 5
Info: STRUCTURE SUMMARY:
Info: 2944 ATOMS
Info: 2943 BONDS
Info: 38 ANGLES
Info: 57 DIHEDRALS
Info: 0 IMPROPERS
Info: 0 CROSSTERMS
Info: 3026 EXCLUSIONS
Info: 2936 RIGID BONDS
Info: ALCH: 0 ATOMS TO DISAPPEAR IN FINAL STATE
Info: ALCH: 22 ATOMS TO APPEAR IN FINAL STATE
Info: 5896 DEGREES OF FREEDOM
Info: 982 HYDROGEN GROUPS
Info: 4 ATOMS IN LARGEST HYDROGEN GROUP
Info: 982 MIGRATION GROUPS
Info: 4 ATOMS IN LARGEST MIGRATION GROUP
Info: TOTAL MASS = 17665.8 amu
Info: TOTAL CHARGE = 2.23517e-08 e
Info: MASS DENSITY = 0.971497 g/cm^3
Info: ATOM DENSITY = 0.0974962 atoms/A^3
Info: ADDED 0 IMPLICIT EXCLUSIONS
Info: NONBONDED TABLE R-SQUARED SPACING: 0.0625
Info: NONBONDED TABLE SIZE: 705 POINTS
Info: REMOVING COM VELOCITY -0.00556728 0.0755418 0.0300746
Info: Use 3D box decompostion in PME FFT.
Info: Updated CUDA force table with 4096 elements.
Info: Updated CUDA LJ table with 7 x 7 elements.
Info: Found 23 unique exclusion lists needing 72 bytes
TCL: Running for 1500000 steps
ETITLE: TS BOND ANGLE DIHED IMPRP ELECT VDW BOUNDARY MISC KINETIC TOTAL TEMP POTENTIAL TOTALAVG TEMPAVG PRESSURE GPRESSURE VOLUME PRESSAVG GPRESSAVG
ENERGY: 0 1.4678 17.1691 4.5815 0.0000 -10522.5846 1335.9038 0.0000 0.0000 1791.2325 -7372.2300 305.7630 -9163.4624 -7372.2300 305.7630 -506.2978 -426.8701 30196.0463 -506.2978 -426.8701
ENERGY: 300000 0.8764 5.6509 4.2132 0.0000 -10698.0990 1365.6033 0.0000 0.0000 1744.0478 -7577.7074 297.7085 -9321.7553 -7465.2409 303.2842 -1048.2021 -971.4606 30523.9761 -316.3185 -227.4482
ENERGY: 600000 3.2870 9.1649 4.2044 0.0000 -10650.5246 1493.3371 0.0000 0.0000 1722.1875 -7418.3437 293.9770 -9140.5312 -7433.1683 300.9104 698.4559 737.4959 30548.0363 -250.7754 -171.7059
ENERGY: 900000 1.6061 7.7984 5.6880 0.0000 -10646.5413 1426.3231 0.0000 0.0000 1774.0789 -7431.0468 302.8348 -9205.1257 -7432.2597 300.4390 -66.8702 -29.1550 30529.3029 -148.6205 -77.5820
ENERGY: 1200000 3.9750 10.1314 5.7139 0.0000 -10532.5147 1401.1759 0.0000 0.0000 1766.2459 -7345.2726 301.4978 -9111.5185 -7426.8141 300.3131 -213.1614 -92.0003 30614.4447 -59.3835 18.1054
ENERGY: 1500000 1.5606 11.4112 4.7913 0.0000 -10590.2181 1403.6119 0.0000 0.0000 1772.8548 -7395.9883 302.6259 -9168.8431 -7421.8639 300.0015 -270.6741 -290.4615 30469.3698 -66.3025 5.0355
TCL: Running FEP window   2: Lambda1 0.95   Lambda2 0.8999999999999999 [dLambda -0.050000000000000044]
TCL: Setting parameter firsttimestep to 0
TCL: Setting parameter alchLambda to 0.95
Info: NONBONDED TABLE R-SQUARED SPACING: 0.0625
Info: NONBONDED TABLE SIZE: 705 POINTS
TCL: Setting parameter alchLambda2 to 0.8999999999999999
Info: NONBONDED TABLE R-SQUARED SPACING: 0.0625
Info: NONBONDED TABLE SIZE: 705 POINTS
TCL: Running for 1500000 steps
ETITLE: TS BOND ANGLE DIHED IMPRP ELECT VDW BOUNDARY MISC KINETIC TOTAL TEMP POTENTIAL TOTALAVG TEMPAVG PRESSURE GPRESSURE VOLUME PRESSAVG GPRESSAVG
ENERGY: 0 1.5606 11.4112 4.7913 0.0000 -10587.7424 1402.9680 0.0000 0.0000 1771.9709 -7395.0403 302.4750 -9167.0113 -7395.0403 302.4750 -389.0842 -302.7403 30469.3698 -389.0842 -302.7403
ENERGY: 300000 1.8329 11.2265 4.7147 0.0000 -10615.4908 1394.7427 0.0000 0.0000 1715.8711 -7487.1029 292.8988 -9202.9741 -7440.5447 298.3321 -280.3965 -337.1207 30216.9392 -354.4572 -328.3877
ENERGY: 600000 0.7413 9.3530 4.9445 0.0000 -10604.0962 1361.7497 0.0000 0.0000 1770.0095 -7457.2981 302.1402 -9227.3076 -7428.3736 299.2380 -621.4701 -621.2825 30420.7014 -226.7485 -184.0834
ENERGY: 900000 0.7477 8.4193 3.3047 0.0000 -10614.0361 1389.7520 0.0000 0.0000 1758.1966 -7453.6159 300.1237 -9211.8125 -7424.5318 298.8185 -124.5667 -127.4954 29975.4567 -273.8416 -239.5761
ENERGY: 1200000 2.7375 13.3324 4.4302 0.0000 -10763.0877 1486.2020 0.0000 0.0000 1735.1916 -7521.1940 296.1968 -9256.3856 -7439.3244 298.4942 289.4859 356.7825 30149.4901 -210.6482 -168.4682
ENERGY: 1500000 0.8344 7.1336 6.4097 0.0000 -10536.9486 1438.5178 0.0000 0.0000 1730.2358 -7353.8173 295.3508 -9084.0531 -7434.5010 298.2025 291.7316 379.3645 30169.0647 -114.0281 -67.3636
TCL: Running FEP window   3: Lambda1 0.8999999999999999 Lambda2 0.8499999999999999 [dLambda -0.050000000000000044]
TCL: Setting parameter firsttimestep to 0
TCL: Setting parameter alchLambda to 0.8999999999999999
Info: NONBONDED TABLE R-SQUARED SPACING: 0.0625
Info: NONBONDED TABLE SIZE: 705 POINTS
TCL: Setting parameter alchLambda2 to 0.8499999999999999
Info: NONBONDED TABLE R-SQUARED SPACING: 0.0625
Info: NONBONDED TABLE SIZE: 705 POINTS
TCL: Running for 1500000 steps
ETITLE: TS BOND ANGLE DIHED IMPRP ELECT VDW BOUNDARY MISC KINETIC TOTAL TEMP POTENTIAL TOTALAVG TEMPAVG PRESSURE GPRESSURE VOLUME PRESSAVG GPRESSAVG
ENERGY: 0 0.8344 7.1336 6.4097 0.0000 -10535.6673 1437.8874 0.0000 0.0000 1729.3551 -7354.0471 295.2005 -9083.4022 -7354.0471 295.2005 272.5667 359.6959 30169.0647 272.5667 359.6959
ENERGY: 300000 3.3288 8.1020 7.7063 0.0000 -10777.1390 1448.9411 0.0000 0.0000 1765.7875 -7543.2733 301.4195 -9309.0608 -7444.2097 299.7562 -28.8695 3.7375 30070.9834 -48.2434 8.2205
ENERGY: 600000 3.6225 12.2147 3.6969 0.0000 -10679.2460 1464.8107 0.0000 0.0000 1717.4347 -7477.4666 293.1657 -9194.9013 -7441.0399 302.2580 527.5780 571.9189 30100.8286 154.0134 222.6894
ENERGY: 900000 4.0487 9.4615 2.7113 0.0000 -10577.1432 1374.5199 0.0000 0.0000 1723.6890 -7462.7128 294.2333 -9186.4018 -7429.2037 302.5161 -477.8715 -442.6004 30583.2592 8.6169 74.8084
ENERGY: 1200000 4.0368 10.7122 6.0016 0.0000 -10709.6868 1500.1713 0.0000 0.0000 1732.7092 -7456.0558 295.7730 -9188.7650 -7426.9600 301.8214 749.2723 827.7462 29767.2110 77.1570 140.2094
ENERGY: 1500000 1.7093 14.5700 5.9586 0.0000 -10653.9562 1415.2124 0.0000 0.0000 1771.2905 -7445.2154 302.3589 -9216.5059 -7425.1273 302.0093 -44.7259 -18.0284 30283.9174 75.1713 128.9615
TCL: Running FEP window   4: Lambda1 0.8499999999999999 Lambda2 0.7999999999999998 [dLambda -0.050000000000000044]
TCL: Setting parameter firsttimestep to 0
TCL: Setting parameter alchLambda to 0.8499999999999999
Info: NONBONDED TABLE R-SQUARED SPACING: 0.0625
Info: NONBONDED TABLE SIZE: 705 POINTS
TCL: Setting parameter alchLambda2 to 0.7999999999999998
Info: NONBONDED TABLE R-SQUARED SPACING: 0.0625
Info: NONBONDED TABLE SIZE: 705 POINTS
TCL: Running for 1500000 steps
ETITLE: TS BOND ANGLE DIHED IMPRP ELECT VDW BOUNDARY MISC KINETIC TOTAL TEMP POTENTIAL TOTALAVG TEMPAVG PRESSURE GPRESSURE VOLUME PRESSAVG GPRESSAVG
ENERGY: 0 1.7093 14.5700 5.9586 0.0000 -10652.3527 1414.9285 0.0000 0.0000 1770.4533 -7444.7331 302.2159 -9215.1863 -7444.7331 302.2159 -102.1205 -32.4304 30283.9174 -102.1205 -32.4304
ENERGY: 300000 2.6601 5.5509 4.4885 0.0000 -10581.4343 1391.5109 0.0000 0.0000 1765.5874 -7411.6365 301.3853 -9177.2239 -7465.1833 301.7079 -352.2966 -276.9268 30995.6370 -349.2719 -294.3128
ENERGY: 600000 2.0900 8.1073 3.1149 0.0000 -10452.8909 1317.8181 0.0000 0.0000 1710.3193 -7411.4412 291.9511 -9121.7606 -7431.2682 301.4653 -925.4470 -860.8637 30937.0299 -266.4578 -211.5434
ENERGY: 900000 2.1220 8.2553 3.1145 0.0000 -10743.7417 1507.7003 0.0000 0.0000 1737.9212 -7484.6283 296.6627 -9222.5495 -7433.1476 302.1969 428.5867 523.8163 30217.6157 -32.2404 31.0861
ENERGY: 1200000 0.9501 15.4955 5.7109 0.0000 -10539.7238 1398.4278 0.0000 0.0000 1797.3578 -7321.7817 306.8085 -9119.1395 -7415.3659 302.6126 94.3289 189.6686 30125.9222 -89.5810 -21.9765
ENERGY: 1500000 2.5545 9.2777 3.4687 0.0000 -10554.6664 1380.5252 0.0000 0.0000 1752.7233 -7406.1169 299.1894 -9158.8402 -7406.6015 302.7865 -151.8578 -154.3149 30143.7788 -89.6735 -32.9468
TCL: Running FEP window   5: Lambda1 0.7999999999999998 Lambda2 0.7499999999999998 [dLambda -0.050000000000000044]
TCL: Setting parameter firsttimestep to 0
TCL: Setting parameter alchLambda to 0.7999999999999998
Info: NONBONDED TABLE R-SQUARED SPACING: 0.0625
Info: NONBONDED TABLE SIZE: 705 POINTS
TCL: Setting parameter alchLambda2 to 0.7499999999999998
Info: NONBONDED TABLE R-SQUARED SPACING: 0.0625
Info: NONBONDED TABLE SIZE: 705 POINTS
TCL: Running for 1500000 steps
ETITLE: TS BOND ANGLE DIHED IMPRP ELECT VDW BOUNDARY MISC KINETIC TOTAL TEMP POTENTIAL TOTALAVG TEMPAVG PRESSURE GPRESSURE VOLUME PRESSAVG GPRESSAVG
ENERGY: 0 2.5545 9.2777 3.4687 0.0000 -10552.6533 1379.8417 0.0000 0.0000 1751.8313 -7405.6794 299.0372 -9157.5107 -7405.6794 299.0372 -259.4917 -168.9040 30143.7788 -259.4917 -168.9040
ENERGY: 300000 1.6109 13.0439 5.5106 0.0000 -10581.6346 1407.5399 0.0000 0.0000 1736.9282 -7417.0010 296.4932 -9153.9293 -7429.4378 300.6466 -22.5009 21.4176 30252.5692 16.6271 50.8890
ENERGY: 600000 4.4578 13.0752 4.6739 0.0000 -10662.8375 1439.7185 0.0000 0.0000 1773.8113 -7427.1009 302.7892 -9200.9122 -7417.6882 301.5181 287.0672 284.0419 29919.3579 74.7601 107.5167
ENERGY: 900000 1.4206 10.0484 4.6434 0.0000 -10874.7844 1559.7450 0.0000 0.0000 1794.4015 -7504.5254 306.3039 -9298.9269 -7439.3311 300.5522 837.2349 863.5713 29926.8817 121.0839 152.3272
ENERGY: 1200000 2.8930 9.4625 5.3175 0.0000 -10756.1382 1529.2214 0.0000 0.0000 1744.6572 -7464.5865 297.8126 -9209.2437 -7426.8575 300.9626 981.4435 1062.6135 29677.1919 101.8268 146.7062
ENERGY: 1500000 2.3253 8.5366 6.2341 0.0000 -10602.3814 1415.5522 0.0000 0.0000 1738.2644 -7431.4688 296.7213 -9169.7332 -7426.9313 301.0362 195.4272 256.8894 30228.7647 139.0176 185.6224
TCL: Running FEP window   6: Lambda1 0.7499999999999998 Lambda2 0.6999999999999997 [dLambda -0.050000000000000044]
TCL: Setting parameter firsttimestep to 0
TCL: Setting parameter alchLambda to 0.7499999999999998
Info: NONBONDED TABLE R-SQUARED SPACING: 0.0625
Info: NONBONDED TABLE SIZE: 705 POINTS
TCL: Setting parameter alchLambda2 to 0.6999999999999997
Info: NONBONDED TABLE R-SQUARED SPACING: 0.0625
Info: NONBONDED TABLE SIZE: 705 POINTS
TCL: Running for 1500000 steps
ETITLE: TS BOND ANGLE DIHED IMPRP ELECT VDW BOUNDARY MISC KINETIC TOTAL TEMP POTENTIAL TOTALAVG TEMPAVG PRESSURE GPRESSURE VOLUME PRESSAVG GPRESSAVG
ENERGY: 0 2.3253 8.5366 6.2341 0.0000 -10601.8257 1416.0372 0.0000 0.0000 1737.4109 -7431.2816 296.5756 -9168.6925 -7431.2816 296.5756 171.4944 252.4279 30228.7647 171.4944 252.4279
ENERGY: 300000 1.8476 8.5080 4.0637 0.0000 -10623.3170 1468.0767 0.0000 0.0000 1761.9895 -7378.8315 300.7712 -9140.8211 -7422.3344 298.1745 602.8165 586.1088 30155.1054 391.2828 435.6595
ENERGY: 600000 1.8437 10.2349 4.2342 0.0000 -10645.3170 1445.3135 0.0000 0.0000 1767.3731 -7416.3176 301.6902 -9183.6907 -7447.5475 297.4417 139.8421 264.0002 30267.6862 165.1257 240.4810
ENERGY: 900000 2.7669 7.4575 3.8377 0.0000 -10664.2891 1450.3232 0.0000 0.0000 1775.1524 -7424.7515 303.0181 -9199.9038 -7451.9896 298.6054 190.5621 282.8477 30064.5809 179.5585 254.8063
ENERGY: 1200000 1.1195 9.9635 3.8612 0.0000 -10527.7357 1375.6931 0.0000 0.0000 1797.8702 -7339.2282 306.8960 -9137.0984 -7440.1088 299.4920 -324.8337 -287.4820 30342.1507 102.1263 166.8957
ENERGY: 1500000 0.9148 6.9767 7.1950 0.0000 -10587.4928 1344.7570 0.0000 0.0000 1751.9067 -7475.7425 299.0501 -9227.6492 -7448.3657 298.6302 -570.9243 -527.3237 29918.5193 -20.1059 43.7939
TCL: Running FEP window   7: Lambda1 0.6999999999999997 Lambda2 0.6499999999999997 [dLambda -0.050000000000000044]
TCL: Setting parameter firsttimestep to 0
TCL: Setting parameter alchLambda to 0.6999999999999997
Info: NONBONDED TABLE R-SQUARED SPACING: 0.0625
Info: NONBONDED TABLE SIZE: 705 POINTS
TCL: Setting parameter alchLambda2 to 0.6499999999999997
Info: NONBONDED TABLE R-SQUARED SPACING: 0.0625
Info: NONBONDED TABLE SIZE: 705 POINTS
TCL: Running for 1500000 steps
ETITLE: TS BOND ANGLE DIHED IMPRP ELECT VDW BOUNDARY MISC KINETIC TOTAL TEMP POTENTIAL TOTALAVG TEMPAVG PRESSURE GPRESSURE VOLUME PRESSAVG GPRESSAVG
ENERGY: 0 0.9148 6.9767 7.1950 0.0000 -10586.1110 1345.3092 0.0000 0.0000 1751.0160 -7474.6991 298.8980 -9225.7151 -7474.6991 298.8980 -614.1964 -528.7776 29918.5193 -614.1964 -528.7776
ENERGY: 300000 1.6586 5.4690 4.4343 0.0000 -10526.7493 1417.4950 0.0000 0.0000 1747.7476 -7349.9448 298.3401 -9097.6924 -7420.3816 299.8370 275.0545 231.7313 30420.8733 -32.7243 17.4963
ENERGY: 600000 1.4692 9.5975 4.4009 0.0000 -10677.9358 1447.8205 0.0000 0.0000 1753.3488 -7461.2988 299.2962 -9214.6476 -7429.2355 298.3876 211.7736 233.8383 30155.1899 122.9510 179.0611
ENERGY: 900000 1.5724 10.6461 5.3534 0.0000 -10679.6892 1532.6420 0.0000 0.0000 1741.2740 -7388.2012 297.2351 -9129.4752 -7419.5363 299.1192 1228.7321 1255.9240 29926.7408 -10.5401 47.6394
ENERGY: 1200000 1.8231 8.9737 6.1574 0.0000 -10613.3074 1431.9910 0.0000 0.0000 1788.6744 -7375.6877 305.3263 -9164.3621 -7406.1755 300.2060 95.6791 132.2317 30412.6513 -103.6418 -43.6785
ENERGY: 1500000 1.5132 11.1398 7.6839 0.0000 -10580.9021 1468.2411 0.0000 0.0000 1764.3902 -7327.9340 301.1810 -9092.3242 -7406.9349 299.6931 417.7976 547.1924 30376.1972 -35.1430 27.3545
TCL: Running FEP window   8: Lambda1 0.6499999999999997 Lambda2 0.5999999999999996 [dLambda -0.050000000000000044]
TCL: Setting parameter firsttimestep to 0
TCL: Setting parameter alchLambda to 0.6499999999999997
Info: NONBONDED TABLE R-SQUARED SPACING: 0.0625
Info: NONBONDED TABLE SIZE: 705 POINTS
TCL: Setting parameter alchLambda2 to 0.5999999999999996
Info: NONBONDED TABLE R-SQUARED SPACING: 0.0625
Info: NONBONDED TABLE SIZE: 705 POINTS
TCL: Running for 1500000 steps
ETITLE: TS BOND ANGLE DIHED IMPRP ELECT VDW BOUNDARY MISC KINETIC TOTAL TEMP POTENTIAL TOTALAVG TEMPAVG PRESSURE GPRESSURE VOLUME PRESSAVG GPRESSAVG
ENERGY: 0 1.5132 11.1398 7.6839 0.0000 -10579.9890 1467.9800 0.0000 0.0000 1763.5422 -7328.1300 301.0362 -9091.6722 -7328.1300 301.0362 454.6456 540.0387 30376.1972 454.6456 540.0387
ENERGY: 300000 3.3181 13.1136 6.5760 0.0000 -10677.5052 1445.3106 0.0000 0.0000 1771.8971 -7437.2899 302.4624 -9209.1870 -7390.4881 300.3982 32.9862 96.5557 30316.2316 115.4211 168.8380
ENERGY: 600000 3.0288 8.2799 4.1700 0.0000 -10597.5544 1386.0376 0.0000 0.0000 1757.7706 -7438.2675 300.0510 -9196.0381 -7415.5112 299.4071 -152.9706 -88.7050 29941.0582 -33.6980 29.4755
ENERGY: 900000 2.1449 11.3261 3.8576 0.0000 -10451.2019 1401.8588 0.0000 0.0000 1738.2997 -7293.7149 296.7273 -9032.0146 -7406.1983 299.8600 -21.6101 21.2358 30771.0408 -135.2393 -74.9445
ENERGY: 1200000 1.6300 8.4595 5.5431 0.0000 -10603.1653 1418.4275 0.0000 0.0000 1729.0517 -7440.0535 295.1487 -9169.1052 -7416.5736 299.3465 -228.9334 -137.9937 30710.5170 -85.7993 -25.7755
ENERGY: 1500000 2.5703 8.4111 4.4356 0.0000 -10583.3085 1467.7438 0.0000 0.0000 1756.1324 -7344.0154 299.7714 -9100.1477 -7415.1741 299.5440 512.5038 584.0470 30420.6195 12.8037 71.6764
TCL: Running FEP window   9: Lambda1 0.5999999999999996 Lambda2 0.5499999999999996 [dLambda -0.050000000000000044]
TCL: Setting parameter firsttimestep to 0
TCL: Setting parameter alchLambda to 0.5999999999999996
Info: NONBONDED TABLE R-SQUARED SPACING: 0.0625
Info: NONBONDED TABLE SIZE: 705 POINTS
TCL: Setting parameter alchLambda2 to 0.5499999999999996
Info: NONBONDED TABLE R-SQUARED SPACING: 0.0625
Info: NONBONDED TABLE SIZE: 705 POINTS
TCL: Running for 1500000 steps
ETITLE: TS BOND ANGLE DIHED IMPRP ELECT VDW BOUNDARY MISC KINETIC TOTAL TEMP POTENTIAL TOTALAVG TEMPAVG PRESSURE GPRESSURE VOLUME PRESSAVG GPRESSAVG
ENERGY: 0 2.5703 8.4111 4.4356 0.0000 -10582.0691 1466.9685 0.0000 0.0000 1755.2429 -7344.4407 299.6195 -9099.6836 -7344.4407 299.6195 503.0473 569.7035 30420.6195 503.0473 569.7035
ENERGY: 300000 2.0188 10.1450 2.9382 0.0000 -10520.6221 1341.5407 0.0000 0.0000 1792.0324 -7371.9470 305.8995 -9163.9794 -7375.8669 301.7862 -768.0374 -721.8114 30422.8998 -2.6446 52.6810
ENERGY: 600000 0.9770 10.1972 5.4959 0.0000 -10739.5724 1493.0851 0.0000 0.0000 1761.9870 -7467.8303 300.7708 -9229.8173 -7398.2318 299.8312 667.4176 682.5898 29880.2711 180.5188 227.9193
ENERGY: 900000 1.0043 10.8118 3.8138 0.0000 -10652.2649 1416.8095 0.0000 0.0000 1735.5020 -7484.3233 296.2498 -9219.8253 -7428.6033 297.8330 116.7797 189.2151 29702.4513 147.5780 203.2096
ENERGY: 1200000 3.5801 8.4994 3.7268 0.0000 -10672.9898 1472.2018 0.0000 0.0000 1775.5899 -7409.3918 303.0928 -9184.9817 -7418.6912 299.5238 491.6168 503.5994 29856.5296 75.6070 131.6302
ENERGY: 1500000 0.9105 10.1125 7.1123 0.0000 -10512.9634 1343.0139 0.0000 0.0000 1781.5774 -7370.2369 304.1148 -9151.8142 -7419.8482 299.4459 -881.9560 -777.2670 30887.0730 -3.5938 53.0215
TCL: Running FEP window  10: Lambda1 0.5499999999999996 Lambda2 0.4999999999999996 [dLambda -0.04999999999999999]
TCL: Setting parameter firsttimestep to 0
TCL: Setting parameter alchLambda to 0.5499999999999996
Info: NONBONDED TABLE R-SQUARED SPACING: 0.0625
Info: NONBONDED TABLE SIZE: 705 POINTS
TCL: Setting parameter alchLambda2 to 0.4999999999999996
Info: NONBONDED TABLE R-SQUARED SPACING: 0.0625
Info: NONBONDED TABLE SIZE: 705 POINTS
TCL: Running for 1500000 steps
ETITLE: TS BOND ANGLE DIHED IMPRP ELECT VDW BOUNDARY MISC KINETIC TOTAL TEMP POTENTIAL TOTALAVG TEMPAVG PRESSURE GPRESSURE VOLUME PRESSAVG GPRESSAVG
ENERGY: 0 0.9105 10.1125 7.1123 0.0000 -10512.4622 1343.5668 0.0000 0.0000 1780.6840 -7370.0761 303.9623 -9150.7601 -7370.0761 303.9623 -864.1544 -780.9546 30887.0730 -864.1544 -780.9546
ENERGY: 300000 1.1092 6.5986 4.5051 0.0000 -10651.7035 1439.4064 0.0000 0.0000 1737.2981 -7462.7861 296.5564 -9200.0842 -7419.2505 300.2924 -163.4281 -77.1064 30405.1323 -353.1520 -272.2240
ENERGY: 600000 2.5549 8.6825 3.2553 0.0000 -10726.8214 1486.9112 0.0000 0.0000 1759.4514 -7465.9662 300.3379 -9225.4175 -7406.2967 302.3767 490.7818 508.7663 30045.7194 -174.3107 -115.3967
ENERGY: 900000 0.8773 12.2138 6.6873 0.0000 -10809.5020 1553.3746 0.0000 0.0000 1760.2854 -7476.0636 300.4803 -9236.3490 -7412.3260 301.9474 1093.8148 1198.6896 29478.5566 -35.2173 25.5369
ENERGY: 1200000 1.6476 11.4980 4.2252 0.0000 -10610.6803 1399.6177 0.0000 0.0000 1734.3172 -7459.3745 296.0475 -9193.6918 -7420.3260 301.5658 -632.5590 -523.7687 30670.4726 -56.6830 2.6314
ENERGY: 1500000 1.3180 12.8273 3.6547 0.0000 -10793.8627 1486.1810 0.0000 0.0000 1763.2489 -7526.6328 300.9862 -9289.8817 -7423.7653 300.9925 271.7179 318.9205 29702.5515 -22.7505 39.5310
TCL: Running FEP window  11: Lambda1 0.4999999999999996 Lambda2 0.4499999999999996 [dLambda -0.04999999999999999]
TCL: Setting parameter firsttimestep to 0
TCL: Setting parameter alchLambda to 0.4999999999999996
Info: NONBONDED TABLE R-SQUARED SPACING: 0.0625
Info: NONBONDED TABLE SIZE: 705 POINTS
TCL: Setting parameter alchLambda2 to 0.4499999999999996
Info: NONBONDED TABLE R-SQUARED SPACING: 0.0625
Info: NONBONDED TABLE SIZE: 705 POINTS
TCL: Running for 1500000 steps
ETITLE: TS BOND ANGLE DIHED IMPRP ELECT VDW BOUNDARY MISC KINETIC TOTAL TEMP POTENTIAL TOTALAVG TEMPAVG PRESSURE GPRESSURE VOLUME PRESSAVG GPRESSAVG
ENERGY: 0 1.3180 12.8273 3.6547 0.0000 -10793.7658 1486.5165 0.0000 0.0000 1762.3149 -7527.1345 300.8267 -9289.4493 -7527.1345 300.8267 226.6521 313.5623 29702.5515 226.6521 313.5623
ENERGY: 300000 1.7805 9.6894 4.7044 0.0000 -10560.8047 1410.6121 0.0000 0.0000 1723.4340 -7410.5844 294.1898 -9134.0184 -7442.4429 303.4621 -279.1869 -219.1000 30964.9918 233.0169 325.5736
ENERGY: 600000 2.3431 9.1514 7.3063 0.0000 -10693.4535 1463.0546 0.0000 0.0000 1820.0158 -7391.5824 310.6763 -9211.5982 -7462.5324 301.2641 64.9301 131.1895 30378.2243 153.5626 241.3099
ENERGY: 900000 1.9664 8.4258 3.7423 0.0000 -10599.4433 1389.4817 0.0000 0.0000 1754.1581 -7441.6689 299.4344 -9195.8270 -7438.2533 301.0431 -354.5267 -216.2573 30184.0614 6.3549 87.5511
ENERGY: 1200000 0.7601 9.4018 4.5747 0.0000 -10618.4386 1434.2280 0.0000 0.0000 1797.6829 -7371.7910 306.8640 -9169.4739 -7435.7336 301.7643 172.8568 144.0071 30155.9399 87.8440 159.4724
ENERGY: 1500000 1.6373 8.3328 4.6522 0.0000 -10708.1175 1548.1509 0.0000 0.0000 1748.3175 -7397.0268 298.4374 -9145.3443 -7433.0279 301.0896 1028.4032 1111.1857 30010.6544 128.3677 196.5346
TCL: Running FEP window  12: Lambda1 0.4499999999999996 Lambda2 0.39999999999999963 [dLambda -0.04999999999999999]
TCL: Setting parameter firsttimestep to 0
TCL: Setting parameter alchLambda to 0.4499999999999996
Info: NONBONDED TABLE R-SQUARED SPACING: 0.0625
Info: NONBONDED TABLE SIZE: 705 POINTS
TCL: Setting parameter alchLambda2 to 0.39999999999999963
Info: NONBONDED TABLE R-SQUARED SPACING: 0.0625
Info: NONBONDED TABLE SIZE: 705 POINTS
TCL: Running for 1500000 steps
ETITLE: TS BOND ANGLE DIHED IMPRP ELECT VDW BOUNDARY MISC KINETIC TOTAL TEMP POTENTIAL TOTALAVG TEMPAVG PRESSURE GPRESSURE VOLUME PRESSAVG GPRESSAVG
ENERGY: 0 1.6373 8.3328 4.6522 0.0000 -10708.1174 1548.0008 0.0000 0.0000 1747.4201 -7398.0741 298.2842 -9145.4942 -7398.0741 298.2842 1014.1731 1101.5168 30010.6544 1014.1731 1101.5168
ENERGY: 300000 1.0644 13.6591 5.7476 0.0000 -10550.4937 1388.8170 0.0000 0.0000 1725.5853 -7415.6202 294.5570 -9141.2055 -7432.5278 294.3563 -425.3337 -382.4559 30437.5875 -110.1736 -45.0214
ENERGY: 600000 3.4259 9.8209 5.7122 0.0000 -10647.6201 1429.1261 0.0000 0.0000 1753.4184 -7446.1166 299.3081 -9199.5350 -7440.3426 296.2039 13.4344 95.1769 30088.9154 -192.7139 -116.3199
ENERGY: 900000 2.7072 10.7216 6.5423 0.0000 -10669.6691 1455.5218 0.0000 0.0000 1814.7390 -7379.4372 309.7755 -9194.1762 -7427.9421 298.7678 474.0786 496.2970 29795.9287 -126.0920 -58.1282
ENERGY: 1200000 1.7225 8.6433 4.9497 0.0000 -10469.0272 1388.2595 0.0000 0.0000 1696.5646 -7368.8876 289.6032 -9065.4521 -7425.4006 298.0286 -320.4823 -275.5746 30660.0559 -112.7241 -41.6906
ENERGY: 1500000 3.1810 9.9886 5.9289 0.0000 -10584.5390 1349.6935 0.0000 0.0000 1733.6356 -7482.1114 295.9312 -9215.7469 -7432.8859 297.2980 -768.8124 -675.5478 30358.4847 -120.4929 -59.7926
TCL: Running FEP window  13: Lambda1 0.39999999999999963 Lambda2 0.34999999999999964 [dLambda -0.04999999999999999]
TCL: Setting parameter firsttimestep to 0
TCL: Setting parameter alchLambda to 0.39999999999999963
Info: NONBONDED TABLE R-SQUARED SPACING: 0.0625
Info: NONBONDED TABLE SIZE: 705 POINTS
TCL: Setting parameter alchLambda2 to 0.34999999999999964
Info: NONBONDED TABLE R-SQUARED SPACING: 0.0625
Info: NONBONDED TABLE SIZE: 705 POINTS
TCL: Running for 1500000 steps
ETITLE: TS BOND ANGLE DIHED IMPRP ELECT VDW BOUNDARY MISC KINETIC TOTAL TEMP POTENTIAL TOTALAVG TEMPAVG PRESSURE GPRESSURE VOLUME PRESSAVG GPRESSAVG
ENERGY: 0 3.1810 9.9887 5.9289 0.0000 -10584.5380 1349.9361 0.0000 0.0000 1732.7459 -7482.7575 295.7793 -9215.5034 -7482.7575 295.7793 -759.1549 -678.7888 30358.4847 -759.1549 -678.7888
ENERGY: 300000 1.8061 6.2621 5.7900 0.0000 -10557.0498 1330.6976 0.0000 0.0000 1746.1966 -7466.2974 298.0753 -9212.4939 -7410.1937 299.2446 -996.7084 -939.9097 30235.0434 -628.8067 -544.1589
ENERGY: 600000 3.4029 6.0985 3.3564 0.0000 -10577.0403 1401.2032 0.0000 0.0000 1755.4397 -7407.5396 299.6531 -9162.9793 -7419.5571 299.2291 -344.5055 -266.7366 30252.9651 -424.0477 -347.3699
ENERGY: 900000 2.1611 9.9570 5.4786 0.0000 -10742.2555 1491.0487 0.0000 0.0000 1747.9147 -7485.6955 298.3686 -9233.6102 -7423.6736 300.0030 336.5028 450.1276 30240.3317 -206.7234 -129.3836
ENERGY: 1200000 1.1384 14.9586 4.8923 0.0000 -10653.7096 1484.0053 0.0000 0.0000 1767.3454 -7381.3696 301.6854 -9148.7150 -7418.3810 300.2519 332.6149 469.0538 30317.0189 -7.3217 73.6305
ENERGY: 1500000 5.0557 13.8254 5.9045 0.0000 -10608.1024 1411.4749 0.0000 0.0000 1774.8334 -7397.0085 302.9636 -9171.8419 -7412.6557 300.5179 -95.5126 -21.2270 30429.8556 -39.6074 34.4807
TCL: Running FEP window  14: Lambda1 0.34999999999999964 Lambda2 0.29999999999999966 [dLambda -0.04999999999999999]
TCL: Setting parameter firsttimestep to 0
TCL: Setting parameter alchLambda to 0.34999999999999964
Info: NONBONDED TABLE R-SQUARED SPACING: 0.0625
Info: NONBONDED TABLE SIZE: 705 POINTS
TCL: Setting parameter alchLambda2 to 0.29999999999999966
Info: NONBONDED TABLE R-SQUARED SPACING: 0.0625
Info: NONBONDED TABLE SIZE: 705 POINTS
TCL: Running for 1500000 steps
ETITLE: TS BOND ANGLE DIHED IMPRP ELECT VDW BOUNDARY MISC KINETIC TOTAL TEMP POTENTIAL TOTALAVG TEMPAVG PRESSURE GPRESSURE VOLUME PRESSAVG GPRESSAVG
ENERGY: 0 5.0557 13.8254 5.9045 0.0000 -10608.1040 1411.2483 0.0000 0.0000 1773.9813 -7398.0888 302.8182 -9172.0701 -7398.0888 302.8182 -116.3471 -32.4598 30429.8556 -116.3471 -32.4598
ENERGY: 300000 1.6523 8.5553 6.0619 0.0000 -10583.2028 1415.2781 0.0000 0.0000 1774.8372 -7376.8180 302.9643 -9151.6552 -7409.0167 301.1932 -248.6811 -216.5314 30383.7987 77.9352 131.1417
ENERGY: 600000 1.8362 10.9826 3.3365 0.0000 -10671.2983 1409.0697 0.0000 0.0000 1759.2263 -7486.8470 300.2995 -9246.0733 -7452.0047 299.5855 -399.4956 -296.3377 30190.3343 -58.1918 26.7567
ENERGY: 900000 2.2715 7.2428 6.4860 0.0000 -10672.4094 1429.3795 0.0000 0.0000 1729.9996 -7497.0300 295.3105 -9227.0296 -7453.4431 297.8579 -236.3361 -236.1198 30137.9247 -62.9244 10.4655
ENERGY: 1200000 1.5041 12.2039 3.7073 0.0000 -10579.2625 1356.1708 0.0000 0.0000 1797.2002 -7408.4762 306.7816 -9205.6763 -7435.5948 299.7734 -633.4062 -597.4296 30182.8261 -83.8006 -10.7668
ENERGY: 1500000 2.4448 8.5272 5.0600 0.0000 -10627.1777 1410.9705 0.0000 0.0000 1764.3928 -7435.7824 301.1814 -9200.1752 -7429.7210 300.5949 -315.5698 -272.6950 30315.4394 -84.1945 -11.9634
TCL: Running FEP window  15: Lambda1 0.29999999999999966 Lambda2 0.24999999999999967 [dLambda -0.04999999999999999]
TCL: Setting parameter firsttimestep to 0
TCL: Setting parameter alchLambda to 0.29999999999999966
Info: NONBONDED TABLE R-SQUARED SPACING: 0.0625
Info: NONBONDED TABLE SIZE: 705 POINTS
TCL: Setting parameter alchLambda2 to 0.24999999999999967
Info: NONBONDED TABLE R-SQUARED SPACING: 0.0625
Info: NONBONDED TABLE SIZE: 705 POINTS
TCL: Running for 1500000 steps
ETITLE: TS BOND ANGLE DIHED IMPRP ELECT VDW BOUNDARY MISC KINETIC TOTAL TEMP POTENTIAL TOTALAVG TEMPAVG PRESSURE GPRESSURE VOLUME PRESSAVG GPRESSAVG
ENERGY: 0 2.4448 8.5272 5.0600 0.0000 -10627.1779 1411.4251 0.0000 0.0000 1763.4868 -7436.2341 301.0268 -9199.7208 -7436.2341 301.0268 -343.5709 -275.1593 30315.4394 -343.5709 -275.1593
ENERGY: 300000 4.2656 9.8115 4.9401 0.0000 -10664.3562 1461.6752 0.0000 0.0000 1782.1398 -7401.5241 304.2108 -9183.6639 -7458.1833 299.8914 133.9658 283.3600 29964.2781 -239.0547 -146.2628
ENERGY: 600000 3.4453 6.4589 4.9323 0.0000 -10587.4387 1369.6594 0.0000 0.0000 1805.2904 -7397.6524 308.1626 -9202.9428 -7437.5627 300.8111 -565.3821 -509.6793 30251.3973 -446.2307 -363.8497
ENERGY: 900000 1.9188 9.1628 4.4160 0.0000 -10549.4783 1458.9497 0.0000 0.0000 1751.1046 -7323.9265 298.9131 -9075.0311 -7427.9986 300.0145 334.0307 386.6097 30477.2963 -328.2589 -258.0286
ENERGY: 1200000 0.9785 6.6805 4.4756 0.0000 -10863.0670 1584.5425 0.0000 0.0000 1840.2444 -7426.1454 314.1293 -9266.3898 -7418.3964 301.6124 939.1779 1017.7271 30200.7702 -182.4723 -113.0610
ENERGY: 1500000 2.5046 5.5248 5.5086 0.0000 -10562.4747 1401.6959 0.0000 0.0000 1752.8622 -7394.3786 299.2132 -9147.2409 -7418.1222 301.9806 -60.6230 -14.0164 30198.8606 -225.7884 -157.5580
TCL: Running FEP window  16: Lambda1 0.24999999999999967 Lambda2 0.19999999999999968 [dLambda -0.04999999999999999]
TCL: Setting parameter firsttimestep to 0
TCL: Setting parameter alchLambda to 0.24999999999999967
Info: NONBONDED TABLE R-SQUARED SPACING: 0.0625
Info: NONBONDED TABLE SIZE: 705 POINTS
TCL: Setting parameter alchLambda2 to 0.19999999999999968
Info: NONBONDED TABLE R-SQUARED SPACING: 0.0625
Info: NONBONDED TABLE SIZE: 705 POINTS
TCL: Running for 1500000 steps
ETITLE: TS BOND ANGLE DIHED IMPRP ELECT VDW BOUNDARY MISC KINETIC TOTAL TEMP POTENTIAL TOTALAVG TEMPAVG PRESSURE GPRESSURE VOLUME PRESSAVG GPRESSAVG
ENERGY: 0 2.5046 5.5248 5.5086 0.0000 -10562.4737 1402.0979 0.0000 0.0000 1751.9563 -7394.8816 299.0585 -9146.8379 -7394.8816 299.0585 -98.9718 -15.7588 30198.8606 -98.9718 -15.7588
ENERGY: 300000 1.3639 13.3041 3.6976 0.0000 -10578.2847 1367.7317 0.0000 0.0000 1717.4411 -7474.7463 293.1668 -9192.1875 -7427.6547 298.0363 -382.0732 -261.2650 29998.1251 -239.4921 -143.6705
ENERGY: 600000 1.5507 9.2568 3.9001 0.0000 -10579.6296 1441.0932 0.0000 0.0000 1679.8046 -7444.0243 286.7422 -9123.8288 -7446.2698 296.6749 234.2390 275.6661 30198.3400 -319.4154 -257.9820
ENERGY: 900000 1.6650 11.3926 4.1349 0.0000 -10705.9811 1458.8579 0.0000 0.0000 1768.8245 -7461.1061 301.9379 -9229.9306 -7451.4562 296.6244 48.0823 110.3480 30124.5394 -222.8282 -159.1876
ENERGY: 1200000 1.8893 7.3126 4.8941 0.0000 -10588.8956 1455.7340 0.0000 0.0000 1790.4544 -7328.6111 305.6301 -9119.0655 -7433.1123 298.1322 741.8919 818.0452 29779.0024 -247.7602 -187.5099
ENERGY: 1500000 3.1096 8.4971 3.2231 0.0000 -10717.7898 1493.0490 0.0000 0.0000 1781.0792 -7428.8317 304.0298 -9209.9110 -7429.8072 299.0476 797.7101 851.8599 29651.7812 -136.2437 -71.7602
TCL: Running FEP window  17: Lambda1 0.19999999999999968 Lambda2 0.1499999999999997 [dLambda -0.04999999999999999]
TCL: Setting parameter firsttimestep to 0
TCL: Setting parameter alchLambda to 0.19999999999999968
Info: NONBONDED TABLE R-SQUARED SPACING: 0.0625
Info: NONBONDED TABLE SIZE: 705 POINTS
TCL: Setting parameter alchLambda2 to 0.1499999999999997
Info: NONBONDED TABLE R-SQUARED SPACING: 0.0625
Info: NONBONDED TABLE SIZE: 705 POINTS
TCL: Running for 1500000 steps
ETITLE: TS BOND ANGLE DIHED IMPRP ELECT VDW BOUNDARY MISC KINETIC TOTAL TEMP POTENTIAL TOTALAVG TEMPAVG PRESSURE GPRESSURE VOLUME PRESSAVG GPRESSAVG
ENERGY: 0 3.1096 8.4971 3.2231 0.0000 -10717.7894 1493.6003 0.0000 0.0000 1780.1883 -7429.1710 303.8777 -9209.3593 -7429.1710 303.8777 759.9803 850.9631 29651.7812 759.9803 850.9631
ENERGY: 300000 1.9195 6.8307 3.4243 0.0000 -10642.1035 1444.7932 0.0000 0.0000 1687.6665 -7497.4694 288.0843 -9185.1359 -7471.7632 295.2524 -24.9169 -33.1717 30271.1627 167.6970 207.9194
ENERGY: 600000 1.9453 8.5693 4.2710 0.0000 -10671.4660 1433.8496 0.0000 0.0000 1691.4902 -7531.3406 288.7370 -9222.8309 -7452.1517 294.4219 -175.1412 -96.4130 30097.1930 29.5461 71.4361
ENERGY: 900000 6.5573 11.4601 3.8368 0.0000 -10597.2815 1372.6454 0.0000 0.0000 1743.4076 -7459.3743 297.5993 -9202.7819 -7446.3769 294.6795 -926.1351 -831.1438 30570.5241 -173.3978 -111.9625
ENERGY: 1200000 2.7004 8.0342 4.7138 0.0000 -10562.1269 1428.5626 0.0000 0.0000 1781.2415 -7336.8744 304.0575 -9118.1159 -7438.8352 295.5644 114.4934 176.4375 30328.8579 -236.7704 -186.4311
ENERGY: 1500000 0.9274 7.1412 4.1542 0.0000 -10539.5525 1370.8710 0.0000 0.0000 1735.4275 -7421.0312 296.2371 -9156.4587 -7431.1443 295.7437 -402.6154 -319.1681 30279.1988 -195.4433 -140.1096
TCL: Running FEP window  18: Lambda1 0.1499999999999997 Lambda2 0.09999999999999969 [dLambda -0.05 ]
TCL: Setting parameter firsttimestep to 0
TCL: Setting parameter alchLambda to 0.1499999999999997
Info: NONBONDED TABLE R-SQUARED SPACING: 0.0625
Info: NONBONDED TABLE SIZE: 705 POINTS
TCL: Setting parameter alchLambda2 to 0.09999999999999969
Info: NONBONDED TABLE R-SQUARED SPACING: 0.0625
Info: NONBONDED TABLE SIZE: 705 POINTS
TCL: Running for 1500000 steps
ETITLE: TS BOND ANGLE DIHED IMPRP ELECT VDW BOUNDARY MISC KINETIC TOTAL TEMP POTENTIAL TOTALAVG TEMPAVG PRESSURE GPRESSURE VOLUME PRESSAVG GPRESSAVG
ENERGY: 0 0.9274 7.1412 4.1542 0.0000 -10539.5508 1371.2853 0.0000 0.0000 1734.5485 -7421.4942 296.0870 -9156.0426 -7421.4942 296.0870 -394.6190 -319.8532 30279.1988 -394.6190 -319.8532
ENERGY: 300000 8.1491 10.9692 5.7495 0.0000 -10526.4533 1402.0186 0.0000 0.0000 1793.3099 -7306.2569 306.1176 -9099.5668 -7370.1818 300.9035 132.0613 158.2771 29909.2350 -299.2305 -237.9564
ENERGY: 600000 1.6463 7.0767 5.6520 0.0000 -10525.2980 1374.2835 0.0000 0.0000 1783.9417 -7352.6977 304.5184 -9136.6394 -7372.4057 301.2430 -154.6077 -48.2477 30049.5173 -153.8119 -88.5624
ENERGY: 900000 3.6511 10.0149 5.5195 0.0000 -10608.2875 1441.0264 0.0000 0.0000 1720.7322 -7427.3434 293.7286 -9148.0756 -7366.7408 300.8166 -68.5443 -74.4124 30607.4238 -225.2462 -165.9308
ENERGY: 1200000 2.2209 11.2941 4.5806 0.0000 -10730.4747 1474.7226 0.0000 0.0000 1793.6057 -7444.0508 306.1681 -9237.6565 -7392.1308 300.9514 -102.0349 -6.9082 30224.9019 -256.5768 -195.1478
ENERGY: 1500000 0.7782 9.8578 4.4571 0.0000 -10548.8864 1429.4886 0.0000 0.0000 1715.0620 -7389.2427 292.7607 -9104.3047 -7393.3480 300.5881 240.2269 405.1538 29892.1955 -226.0613 -161.5837
TCL: Running FEP window  19: Lambda1 0.09999999999999969 Lambda2 0.049999999999999684 [dLambda -0.05 ]
TCL: Setting parameter firsttimestep to 0
TCL: Setting parameter alchLambda to 0.09999999999999969
Info: NONBONDED TABLE R-SQUARED SPACING: 0.0625
Info: NONBONDED TABLE SIZE: 705 POINTS
TCL: Setting parameter alchLambda2 to 0.049999999999999684
Info: NONBONDED TABLE R-SQUARED SPACING: 0.0625
Info: NONBONDED TABLE SIZE: 705 POINTS
TCL: Running for 1500000 steps
ETITLE: TS BOND ANGLE DIHED IMPRP ELECT VDW BOUNDARY MISC KINETIC TOTAL TEMP POTENTIAL TOTALAVG TEMPAVG PRESSURE GPRESSURE VOLUME PRESSAVG GPRESSAVG
ENERGY: 0 0.7782 9.8578 4.4571 0.0000 -10548.8868 1428.9626 0.0000 0.0000 1714.1774 -7390.6536 292.6097 -9104.8311 -7390.6536 292.6097 311.4934 397.3019 29892.1955 311.4934 397.3019
ENERGY: 300000 1.8635 8.8225 4.0924 0.0000 -10602.1528 1425.3227 0.0000 0.0000 1762.5902 -7399.4616 300.8737 -9162.0518 -7374.6142 302.5822 -153.0003 -38.0318 30296.8915 320.4236 404.7261
ENERGY: 600000 2.0889 11.8724 4.9347 0.0000 -10627.1848 1422.4412 0.0000 0.0000 1740.9971 -7444.8505 297.1878 -9185.8476 -7399.5628 302.5126 -477.9750 -375.2676 30842.1394 -30.5125 53.0685
ENERGY: 900000 1.2629 6.3287 4.0858 0.0000 -10754.5933 1559.5952 0.0000 0.0000 1780.2904 -7403.0302 303.8951 -9183.3206 -7400.1140 303.0644 1250.8532 1325.8516 29733.2658 201.3449 280.0737
ENERGY: 1200000 1.4453 8.6978 3.5699 0.0000 -10554.5315 1393.2859 0.0000 0.0000 1788.1312 -7359.4014 305.2336 -9147.5326 -7400.9970 303.1973 -188.2574 -138.0666 30193.6819 113.2943 178.7025
ENERGY: 1500000 1.8811 6.6414 6.2816 0.0000 -10611.2861 1419.4566 0.0000 0.0000 1752.9021 -7424.1233 299.2200 -9177.0254 -7404.0784 302.1805 -110.3899 -62.5703 30227.5204 119.5609 185.9576
TCL: Running FEP window  20: Lambda1 0.049999999999999684 Lambda2 0.0    [dLambda -0.049999999999999684]
TCL: Setting parameter firsttimestep to 0
TCL: Setting parameter alchLambda to 0.049999999999999684
Info: NONBONDED TABLE R-SQUARED SPACING: 0.0625
Info: NONBONDED TABLE SIZE: 705 POINTS
TCL: Setting parameter alchLambda2 to 0.0
Info: NONBONDED TABLE R-SQUARED SPACING: 0.0625
Info: NONBONDED TABLE SIZE: 705 POINTS
TCL: Running for 1500000 steps
ETITLE: TS BOND ANGLE DIHED IMPRP ELECT VDW BOUNDARY MISC KINETIC TOTAL TEMP POTENTIAL TOTALAVG TEMPAVG PRESSURE GPRESSURE VOLUME PRESSAVG GPRESSAVG
ENERGY: 0 1.8811 6.6414 6.2816 0.0000 -10611.2869 1418.9752 0.0000 0.0000 1752.0369 -7425.4707 299.0723 -9177.5075 -7425.4707 299.0723 -143.1822 -69.0271 30227.5204 -143.1822 -69.0271
ENERGY: 300000 1.3055 8.1453 5.8282 0.0000 -10632.1497 1435.5456 0.0000 0.0000 1742.7750 -7438.5501 297.4913 -9181.3251 -7424.0430 301.0717 135.9083 212.9933 29879.2320 10.1151 106.2279
ENERGY: 600000 1.7572 10.1369 4.6167 0.0000 -10566.4529 1333.7989 0.0000 0.0000 1739.9417 -7476.2015 297.0076 -9216.1432 -7438.0179 301.3300 -1009.0768 -938.4717 30241.7561 -22.1049 66.6893
ENERGY: 900000 1.8945 9.1401 3.0771 0.0000 -10593.5823 1477.6389 0.0000 0.0000 1828.7230 -7273.1088 312.1626 -9101.8317 -7422.2720 301.3856 528.7691 561.5550 30328.4839 42.1987 123.2913
ENERGY: 1200000 3.0937 13.5868 4.0515 0.0000 -10744.2598 1469.6050 0.0000 0.0000 1672.5603 -7581.3625 285.5056 -9253.9228 -7434.0236 300.4065 -280.3219 -243.3072 30297.6722 26.4361 100.5276
ENERGY: 1500000 1.7748 10.8469 4.7225 0.0000 -10894.9208 1576.8300 0.0000 0.0000 1778.0142 -7522.7324 303.5066 -9300.7466 -7439.4316 301.0514 1098.8792 1096.1954 29571.0463 110.1664 177.3241
TCL: Exiting due to exit command.
