Info: SIMULATION PARAMETERS:
Info: TIMESTEP               2
Info: NUMBER OF STEPS        0
Info: STEPS PER CYCLE        10
Info: PERIODIC CELL BASIS 1  29.8752 0 0
Info: PERIODIC CELL BASIS 2  0 33.0097 0
Info: PERIODIC CELL BASIS 3  0 0 30.2883
Info: PERIODIC CELL CENTER   0 0 0
Info: WRAPPING WATERS AROUND PERIODIC BOUNDARIES ON OUTPUT.
Info: WRAPPING ALL CLUSTERS AROUND PERIODIC BOUNDARIES ON OUTPUT.
Info: FIRST LDB TIMESTEP     50
Info: LAST LDB TIMESTEP     -1
Info: HOM BACKGROUND SCALING 1
Info: PME BACKGROUND SCALING 1
Info: MIN ATOMS PER PATCH    40
Info: EMPTY PATCH LOAD       40 ATOMS
Info: VELOCITY FILE          mobley_2501588_equil.vel
Info: CENTER OF MASS MOVING INITIALLY? NO
Info: DIELECTRIC             1
Info: EXCLUDE                SCALED ONE-FOUR
Info: 1-4 ELECTROSTATICS SCALED BY 0.833333
Info: MODIFIED 1-4 VDW PARAMETERS WILL BE USED
Info: DCD FILENAME           mobley_2501588_prod.dcd
Info: DCD FREQUENCY          100000
Info: DCD FIRST STEP         100000
Info: DCD FILE WILL CONTAIN UNIT CELL DATA
Info: XST FILENAME           mobley_2501588_prod.xst
Info: XST FREQUENCY          100000
Info: NO VELOCITY DCD OUTPUT
Info: NO FORCE DCD OUTPUT
Info: OUTPUT FILENAME        mobley_2501588_prod
Info: BINARY OUTPUT FILES WILL BE USED
Info: RESTART FILENAME       mobley_2501588_prod.restart
Info: RESTART FREQUENCY      100000
Info: BINARY RESTART FILES WILL BE USED
Info: CUTOFF                 9
Info: PAIRLIST DISTANCE      11
Info: PAIRLIST SHRINK RATE   0.01
Info: PAIRLIST GROW RATE     0.01
Info: PAIRLIST TRIGGER       0.3
Info: PAIRLISTS PER CYCLE    2
Info: PAIRLISTS ENABLED
Info: MARGIN                 2
Info: HYDROGEN GROUP CUTOFF  2.5
Info: PATCH DIMENSION        15.5
Info: ENERGY OUTPUT STEPS    100000
Info: ENERGY EVALUATION STEPS    100000
Info: OUTPUT ENERGY PRECISION 4
Info: CROSSTERM ENERGY INCLUDED IN DIHEDRAL
Info: TIMING OUTPUT STEPS    1000000
Info: PRESSURE OUTPUT STEPS  100000
Info: ALCHEMICAL FEP ON
Info: FEP CURRENT LAMBDA VALUE     0
Info: FEP COMPARISON LAMBDA VALUE  0.05
Info: FEP INTRA-ALCHEMICAL NON-BONDED INTERACTIONS WILL BE RETAINED
Info: FEP INTRA-ALCHEMICAL BONDED INTERACTIONS WILL BE RETAINED
Info: FEP VDW SHIFTING COEFFICIENT 5
Info: FEP ELEC. ACTIVE FOR ANNIHILATED PARTICLES BETWEEN LAMBDA = 0 AND LAMBDA = 0.5
Info: FEP ELEC. ACTIVE FOR EXNIHILATED PARTICLES BETWEEN LAMBDA = 0.5 AND LAMBDA = 1
Info: FEP VDW ACTIVE FOR ANNIHILATED PARTICLES BETWEEN LAMBDA = 0 AND LAMBDA = 1
Info: FEP VDW ACTIVE FOR EXNIHILATED PARTICLES BETWEEN LAMBDA = 0 AND LAMBDA = 1
Info: FEP BOND ACTIVE FOR ANNIHILATED PARTICLES BETWEEN LAMBDA = 1 AND LAMBDA = 1
Info: FEP BOND ACTIVE FOR EXNIHILATED PARTICLES BETWEEN LAMBDA = 0 AND LAMBDA = 0
Info: LANGEVIN DYNAMICS ACTIVE
Info: LANGEVIN TEMPERATURE   300
Info: LANGEVIN USING BBK INTEGRATOR
Info: LANGEVIN DAMPING COEFFICIENT IS 1 INVERSE PS
Info: LANGEVIN DYNAMICS APPLIED TO HYDROGENS
Info: LANGEVIN PISTON PRESSURE CONTROL ACTIVE
Info:        TARGET PRESSURE IS 1.01325 BAR
Info:     OSCILLATION PERIOD IS 50 FS
Info:             DECAY TIME IS 25 FS
Info:     PISTON TEMPERATURE IS 300 K
Info:       PRESSURE CONTROL IS GROUP-BASED
Info:    INITIAL STRAIN RATE IS 0.000429203 0.000429203 0.000429203
Info:       CELL FLUCTUATION IS ISOTROPIC
Info: PARTICLE MESH EWALD (PME) ACTIVE
Info: PME TOLERANCE               1e-06
Info: PME EWALD COEFFICIENT       0.348832
Info: PME INTERPOLATION ORDER     4
Info: PME GRID DIMENSIONS         32 36 32
Info: PME MAXIMUM GRID SPACING    1
Info: PME CALCULATION WILL BE PERFORMED ON GPU
Info: FULL ELECTROSTATIC EVALUATION FREQUENCY      2
Info: USING VERLET I (r-RESPA) MTS SCHEME.
Info: C1 SPLITTING OF LONG RANGE ELECTROSTATICS
Info: PLACING ATOMS IN PATCHES BY HYDROGEN GROUPS
Info: RIGID BONDS TO HYDROGEN : ALL
Info:         ERROR TOLERANCE : 1e-08
Info:          MAX ITERATIONS : 100
Info: RIGID WATER USING SETTLE ALGORITHM
Info: RANDOM NUMBER SEED     1744090649
Info: USE HYDROGEN BONDS?    NO
Info: Using AMBER format force field!
Info: AMBER PARM FILE        mobley_2501588.prmtop
Info: COORDINATE PDB         mobley_2501588.pdb
Info: Exclusions will be read from PARM file!
Info: SCNB (VDW SCALING)     2
Info: USING ARITHMETIC MEAN TO COMBINE L-J SIGMA PARAMETERS
Info: BINARY COORDINATES     mobley_2501588_equil.coor
Info: SUMMARY OF PARAMETERS:
Info: 16 BONDS
Info: 25 ANGLES
Info:   25 HARMONIC
Info:   0 COSINE-BASED
Info: 8 DIHEDRAL
Info: 0 IMPROPER
Info: 0 CROSSTERM
Info: 0 VDW
Info: 55 VDW_PAIRS
Info: 0 NBTHOLE_PAIRS
Info: To read alchdata from file: mobley_2501588.pdb
Info: To read alchflag data from column: 5
Info: STRUCTURE SUMMARY:
Info: 2905 ATOMS
Info: 2906 BONDS
Info: 75 ANGLES
Info: 112 DIHEDRALS
Info: 0 IMPROPERS
Info: 0 CROSSTERMS
Info: 3068 EXCLUSIONS
Info: 2881 RIGID BONDS
Info: ALCH: 0 ATOMS TO DISAPPEAR IN FINAL STATE
Info: ALCH: 40 ATOMS TO APPEAR IN FINAL STATE
Info: 5834 DEGREES OF FREEDOM
Info: 979 HYDROGEN GROUPS
Info: 4 ATOMS IN LARGEST HYDROGEN GROUP
Info: 979 MIGRATION GROUPS
Info: 4 ATOMS IN LARGEST MIGRATION GROUP
Info: TOTAL MASS = 17552.6 amu
Info: TOTAL CHARGE = 0.000299972 e
Info: MASS DENSITY = 0.975823 g/cm^3
Info: ATOM DENSITY = 0.0972561 atoms/A^3
Info: ADDED 0 IMPLICIT EXCLUSIONS
Info: NONBONDED TABLE R-SQUARED SPACING: 0.0625
Info: NONBONDED TABLE SIZE: 705 POINTS
Info: REMOVING COM VELOCITY -0.069941 0.248441 0.174579
Info: Use 3D box decompostion in PME FFT.
Info: Updated CUDA force table with 4096 elements.
Info: Updated CUDA LJ table with 10 x 10 elements.
Info: Found 41 unique exclusion lists needing 224 bytes
TCL: Running for 1500000 steps
ETITLE: TS BOND ANGLE DIHED IMPRP ELECT VDW BOUNDARY MISC KINETIC TOTAL TEMP POTENTIAL TOTALAVG TEMPAVG PRESSURE GPRESSURE VOLUME PRESSAVG GPRESSAVG
ENERGY: 0 5.4450 23.9965 26.3170 0.0000 -10478.3161 1416.7542 0.0000 0.0000 1788.2172 -7217.5861 308.4922 -9005.8033 -7217.5861 308.4922 88.4904 176.7514 29869.5774 88.4904 176.7514
ENERGY: 300000 11.6917 15.3557 24.5783 0.0000 -10376.9561 1326.4916 0.0000 0.0000 1760.4008 -7238.4379 303.6935 -8998.8387 -7247.2795 302.3117 -841.2833 -831.7335 29418.5174 -121.5829 -42.3881
ENERGY: 600000 4.8735 18.3256 27.2040 0.0000 -10521.0115 1439.7902 0.0000 0.0000 1693.0857 -7337.7324 292.0807 -9030.8181 -7272.5265 299.7276 425.5777 465.1349 29315.5840 12.5472 98.1488
ENERGY: 900000 7.5499 14.4158 27.2021 0.0000 -10558.1742 1478.5338 0.0000 0.0000 1763.4324 -7267.0401 304.2165 -9030.4725 -7260.2306 299.2115 363.0809 405.3748 29828.9124 -31.3872 41.8425
ENERGY: 1200000 9.7032 17.6387 27.3997 0.0000 -10528.3451 1464.4105 0.0000 0.0000 1745.1950 -7263.9980 301.0703 -9009.1930 -7264.4619 299.3733 340.3084 443.2272 29623.5976 -158.0429 -81.4641
ENERGY: 1500000 9.5366 19.5693 23.9914 0.0000 -10476.5389 1358.5159 0.0000 0.0000 1717.8165 -7347.1092 296.3471 -9064.9257 -7276.6064 298.4240 -719.4869 -638.8252 29239.8811 -180.0554 -100.0294
TCL: Running FEP window   2: Lambda1 0.05   Lambda2 0.1    [dLambda 0.05  ]
TCL: Setting parameter firsttimestep to 0
TCL: Setting parameter alchLambda to 0.05
Info: NONBONDED TABLE R-SQUARED SPACING: 0.0625
Info: NONBONDED TABLE SIZE: 705 POINTS
TCL: Setting parameter alchLambda2 to 0.1
Info: NONBONDED TABLE R-SQUARED SPACING: 0.0625
Info: NONBONDED TABLE SIZE: 705 POINTS
TCL: Running for 1500000 steps
ETITLE: TS BOND ANGLE DIHED IMPRP ELECT VDW BOUNDARY MISC KINETIC TOTAL TEMP POTENTIAL TOTALAVG TEMPAVG PRESSURE GPRESSURE VOLUME PRESSAVG GPRESSAVG
ENERGY: 0 9.5366 19.5693 23.9914 0.0000 -10476.5384 1366.5548 0.0000 0.0000 1716.9922 -7339.8940 296.2049 -9056.8862 -7339.8940 296.2049 -704.4040 -617.8794 29239.8811 -704.4040 -617.8794
ENERGY: 300000 13.0751 19.0499 24.8044 0.0000 -10363.9117 1376.0240 0.0000 0.0000 1774.7869 -7156.1715 306.1753 -8930.9583 -7242.4499 300.4271 -184.7793 -161.9548 29602.1810 -215.6091 -158.6062
ENERGY: 600000 6.2198 19.4208 29.4741 0.0000 -10474.8051 1403.5779 0.0000 0.0000 1715.1682 -7300.9442 295.8903 -9016.1125 -7257.2047 298.7680 -81.3359 -24.0331 29342.2808 -146.9884 -90.6259
ENERGY: 900000 7.2449 19.0371 25.7882 0.0000 -10414.5003 1356.7071 0.0000 0.0000 1705.3679 -7300.3552 294.1996 -9005.7231 -7262.6925 298.0455 -814.9123 -699.9437 29486.4409 -283.5306 -221.1063
ENERGY: 1200000 6.6836 18.9265 26.1548 0.0000 -10516.8228 1366.8562 0.0000 0.0000 1733.0746 -7365.1271 298.9794 -9098.2017 -7268.9810 298.3276 -342.8084 -301.8591 29068.4739 -196.9078 -136.3865
ENERGY: 1500000 7.9478 15.1723 24.3669 0.0000 -10367.9992 1344.6715 0.0000 0.0000 1776.8823 -7198.9584 306.5368 -8975.8407 -7255.6577 299.3851 -407.3713 -325.8710 29565.2688 -103.4903 -43.5074
TCL: Running FEP window   3: Lambda1 0.1    Lambda2 0.15000000000000002 [dLambda 0.05000000000000002]
TCL: Setting parameter firsttimestep to 0
TCL: Setting parameter alchLambda to 0.1
Info: NONBONDED TABLE R-SQUARED SPACING: 0.0625
Info: NONBONDED TABLE SIZE: 705 POINTS
TCL: Setting parameter alchLambda2 to 0.15000000000000002
Info: NONBONDED TABLE R-SQUARED SPACING: 0.0625
Info: NONBONDED TABLE SIZE: 705 POINTS
TCL: Running for 1500000 steps
ETITLE: TS BOND ANGLE DIHED IMPRP ELECT VDW BOUNDARY MISC KINETIC TOTAL TEMP POTENTIAL TOTALAVG TEMPAVG PRESSURE GPRESSURE VOLUME PRESSAVG GPRESSAVG
ENERGY: 0 7.9478 15.1723 24.3669 0.0000 -10368.0001 1346.3113 0.0000 0.0000 1776.0217 -7198.1801 306.3883 -8974.2018 -7198.1801 306.3883 -398.8375 -315.4227 29565.2688 -398.8375 -315.4227
ENERGY: 300000 8.3786 14.7961 27.3716 0.0000 -10481.8147 1410.9707 0.0000 0.0000 1726.5333 -7293.7645 297.8509 -9020.2978 -7287.6947 296.3716 251.6678 276.5460 29374.1392 -54.6594 5.7791
ENERGY: 600000 10.2190 18.6068 24.7281 0.0000 -10574.5784 1483.1609 0.0000 0.0000 1722.1902 -7315.6734 297.1017 -9037.8637 -7294.9383 296.9701 620.9597 660.6240 29023.8996 -30.6333 21.3547
ENERGY: 900000 5.4288 14.6903 24.6554 0.0000 -10394.7101 1316.9368 0.0000 0.0000 1780.6596 -7252.3394 307.1884 -9032.9990 -7286.5767 298.1286 -680.3798 -650.1431 29945.0466 -143.3077 -88.0744
ENERGY: 1200000 8.7988 16.3192 25.7594 0.0000 -10546.0547 1526.1847 0.0000 0.0000 1764.9530 -7204.0397 304.4788 -8968.9927 -7287.3485 297.4369 761.4427 822.2398 29955.4027 -69.3204 -12.5009
ENERGY: 1500000 10.9053 16.8173 25.7347 0.0000 -10533.5369 1499.9306 0.0000 0.0000 1761.0161 -7219.1329 303.7997 -8980.1490 -7273.3572 298.1180 511.5635 539.6036 29765.9505 -62.4370 -8.2687
TCL: Running FEP window   4: Lambda1 0.15000000000000002 Lambda2 0.2    [dLambda 0.04999999999999999]
TCL: Setting parameter firsttimestep to 0
TCL: Setting parameter alchLambda to 0.15000000000000002
Info: NONBONDED TABLE R-SQUARED SPACING: 0.0625
Info: NONBONDED TABLE SIZE: 705 POINTS
TCL: Setting parameter alchLambda2 to 0.2
Info: NONBONDED TABLE R-SQUARED SPACING: 0.0625
Info: NONBONDED TABLE SIZE: 705 POINTS
TCL: Running for 1500000 steps
ETITLE: TS BOND ANGLE DIHED IMPRP ELECT VDW BOUNDARY MISC KINETIC TOTAL TEMP POTENTIAL TOTALAVG TEMPAVG PRESSURE GPRESSURE VOLUME PRESSAVG GPRESSAVG
ENERGY: 0 10.9053 16.8173 25.7347 0.0000 -10533.5370 1500.9455 0.0000 0.0000 1760.1557 -7218.9785 303.6512 -8979.1342 -7218.9785 303.6512 467.6839 549.7723 29765.9505 467.6839 549.7723
ENERGY: 300000 5.5364 16.4843 26.6144 0.0000 -10419.1792 1414.7104 0.0000 0.0000 1747.9495 -7207.8842 301.5455 -8955.8337 -7222.3676 301.0200 290.9706 330.3069 29517.0095 390.1187 476.7509
ENERGY: 600000 8.8504 16.1529 29.9699 0.0000 -10297.3242 1326.0442 0.0000 0.0000 1741.4723 -7174.8346 300.4281 -8916.3068 -7224.6931 301.9855 -644.1955 -634.3735 29929.5702 152.4735 230.2152
ENERGY: 900000 10.7202 19.7885 24.3136 0.0000 -10402.2848 1386.7806 0.0000 0.0000 1673.2489 -7287.4331 288.6586 -8960.6819 -7232.3255 300.0879 -141.8308 -84.8518 29646.0233 47.3912 110.4855
ENERGY: 1200000 8.8264 14.0147 24.8499 0.0000 -10529.3513 1406.8304 0.0000 0.0000 1687.0243 -7387.8057 291.0350 -9074.8300 -7237.9932 299.4680 -350.6244 -258.3204 29615.9354 23.5068 90.4620
ENERGY: 1500000 7.1378 16.1635 28.8590 0.0000 -10496.7326 1433.9414 0.0000 0.0000 1699.3931 -7311.2379 293.1688 -9010.6310 -7244.3563 299.4922 -60.8298 -58.1898 29729.4357 -34.7512 25.1789
TCL: Running FEP window   5: Lambda1 0.2    Lambda2 0.25   [dLambda 0.04999999999999999]
TCL: Setting parameter firsttimestep to 0
TCL: Setting parameter alchLambda to 0.2
Info: NONBONDED TABLE R-SQUARED SPACING: 0.0625
Info: NONBONDED TABLE SIZE: 705 POINTS
TCL: Setting parameter alchLambda2 to 0.25
Info: NONBONDED TABLE R-SQUARED SPACING: 0.0625
Info: NONBONDED TABLE SIZE: 705 POINTS
TCL: Running for 1500000 steps
ETITLE: TS BOND ANGLE DIHED IMPRP ELECT VDW BOUNDARY MISC KINETIC TOTAL TEMP POTENTIAL TOTALAVG TEMPAVG PRESSURE GPRESSURE VOLUME PRESSAVG GPRESSAVG
ENERGY: 0 7.1378 16.1635 28.8590 0.0000 -10496.7322 1434.5484 0.0000 0.0000 1698.5356 -7311.4879 293.0209 -9010.0236 -7311.4879 293.0209 -130.7595 -46.3793 29729.4357 -130.7595 -46.3793
ENERGY: 300000 6.4848 22.9829 23.9104 0.0000 -10381.2893 1350.8561 0.0000 0.0000 1770.2956 -7206.7594 305.4005 -8977.0550 -7233.2819 301.8193 -162.8620 -87.9869 29188.1010 79.2744 150.9186
ENERGY: 600000 8.1783 14.3957 24.1377 0.0000 -10372.2979 1361.9637 0.0000 0.0000 1708.5054 -7255.1171 294.7408 -8963.6225 -7238.6152 301.5077 -566.0750 -536.0987 29709.8605 -119.8450 -47.6835
ENERGY: 900000 6.6507 17.3344 26.3397 0.0000 -10416.1837 1327.0155 0.0000 0.0000 1770.4477 -7268.3956 305.4267 -9038.8434 -7238.0467 302.2002 -353.2809 -279.7866 29173.3613 -174.1026 -101.7893
ENERGY: 1200000 8.3604 17.2157 23.9145 0.0000 -10312.1854 1320.1683 0.0000 0.0000 1777.9354 -7164.5911 306.7185 -8942.5265 -7239.6757 302.0579 -548.9458 -487.8602 29669.8411 -270.1473 -197.4744
ENERGY: 1500000 8.1001 16.7293 28.3664 0.0000 -10376.4766 1381.7497 0.0000 0.0000 1761.1727 -7180.3585 303.8267 -8941.5312 -7242.3341 302.3643 -13.1901 26.4286 29775.6281 -279.3967 -209.3143
TCL: Running FEP window   6: Lambda1 0.25   Lambda2 0.3    [dLambda 0.04999999999999999]
TCL: Setting parameter firsttimestep to 0
TCL: Setting parameter alchLambda to 0.25
Info: NONBONDED TABLE R-SQUARED SPACING: 0.0625
Info: NONBONDED TABLE SIZE: 705 POINTS
TCL: Setting parameter alchLambda2 to 0.3
Info: NONBONDED TABLE R-SQUARED SPACING: 0.0625
Info: NONBONDED TABLE SIZE: 705 POINTS
TCL: Running for 1500000 steps
ETITLE: TS BOND ANGLE DIHED IMPRP ELECT VDW BOUNDARY MISC KINETIC TOTAL TEMP POTENTIAL TOTALAVG TEMPAVG PRESSURE GPRESSURE VOLUME PRESSAVG GPRESSAVG
ENERGY: 0 8.1000 16.7293 28.3664 0.0000 -10376.4750 1382.6154 0.0000 0.0000 1760.3275 -7180.3364 303.6809 -8940.6639 -7180.3364 303.6809 -36.0741 36.0619 29775.6281 -36.0741 36.0619
ENERGY: 300000 10.0839 17.7803 23.8651 0.0000 -10372.4057 1368.3255 0.0000 0.0000 1734.8175 -7217.5334 299.2800 -8952.3509 -7239.9641 298.8562 -13.4702 14.8501 29656.3458 110.6078 140.0973
ENERGY: 600000 8.4896 13.9099 24.5508 0.0000 -10443.8982 1400.0090 0.0000 0.0000 1702.1071 -7294.8318 293.6370 -8996.9390 -7238.3715 297.7238 -376.8096 -266.0895 29830.0185 200.2497 257.2354
ENERGY: 900000 13.4102 20.3156 24.1030 0.0000 -10459.3899 1395.7660 0.0000 0.0000 1714.7263 -7291.0687 295.8140 -9005.7950 -7240.5780 299.3533 -154.3804 -111.6863 29444.4156 90.2931 139.4278
ENERGY: 1200000 5.4888 18.1891 28.5047 0.0000 -10428.7643 1409.7301 0.0000 0.0000 1736.5251 -7230.3266 299.5746 -8966.8517 -7233.1615 300.2941 400.5203 481.6867 29513.6640 90.5473 147.3633
ENERGY: 1500000 10.6210 17.5078 23.4957 0.0000 -10463.4665 1415.4943 0.0000 0.0000 1692.2040 -7304.1436 291.9286 -8996.3476 -7246.0822 300.0031 375.6966 438.6566 29658.5273 112.6199 170.5585
TCL: Running FEP window   7: Lambda1 0.3    Lambda2 0.35   [dLambda 0.04999999999999999]
TCL: Setting parameter firsttimestep to 0
TCL: Setting parameter alchLambda to 0.3
Info: NONBONDED TABLE R-SQUARED SPACING: 0.0625
Info: NONBONDED TABLE SIZE: 705 POINTS
TCL: Setting parameter alchLambda2 to 0.35
Info: NONBONDED TABLE R-SQUARED SPACING: 0.0625
Info: NONBONDED TABLE SIZE: 705 POINTS
TCL: Running for 1500000 steps
ETITLE: TS BOND ANGLE DIHED IMPRP ELECT VDW BOUNDARY MISC KINETIC TOTAL TEMP POTENTIAL TOTALAVG TEMPAVG PRESSURE GPRESSURE VOLUME PRESSAVG GPRESSAVG
ENERGY: 0 10.6210 17.5078 23.4957 0.0000 -10463.4645 1416.3028 0.0000 0.0000 1691.3447 -7304.1925 291.7804 -8995.5372 -7304.1925 291.7804 360.3377 452.0923 29658.5273 360.3377 452.0923
ENERGY: 300000 7.4822 18.1010 26.8781 0.0000 -10586.7605 1497.7091 0.0000 0.0000 1719.6101 -7316.9799 296.6566 -9036.5901 -7268.1833 296.2889 624.2619 701.8118 29600.7982 402.6900 469.9742
ENERGY: 600000 5.8498 15.5840 27.8666 0.0000 -10522.7493 1416.3660 0.0000 0.0000 1749.0185 -7308.0645 301.7299 -9057.0829 -7266.6211 298.8755 -72.1556 39.3101 29437.9811 302.4280 371.9106
ENERGY: 900000 6.2847 19.8839 25.5130 0.0000 -10189.3368 1256.6650 0.0000 0.0000 1733.1613 -7147.8289 298.9943 -8880.9902 -7248.6722 299.3244 -999.9385 -896.1322 29972.0610 138.5018 210.1530
ENERGY: 1200000 6.4491 15.9587 24.9029 0.0000 -10419.4470 1431.7691 0.0000 0.0000 1733.7657 -7206.6015 299.0986 -8940.3672 -7240.9775 300.3352 614.6872 654.0369 29439.3792 291.9139 368.3050
ENERGY: 1500000 9.5793 16.8591 25.3522 0.0000 -10576.1658 1421.7224 0.0000 0.0000 1735.1090 -7367.5439 299.3303 -9102.6528 -7256.9618 299.6398 -327.6534 -254.7488 29468.8292 135.9996 211.3026
TCL: Running FEP window   8: Lambda1 0.35   Lambda2 0.39999999999999997 [dLambda 0.04999999999999999]
TCL: Setting parameter firsttimestep to 0
TCL: Setting parameter alchLambda to 0.35
Info: NONBONDED TABLE R-SQUARED SPACING: 0.0625
Info: NONBONDED TABLE SIZE: 705 POINTS
TCL: Setting parameter alchLambda2 to 0.39999999999999997
Info: NONBONDED TABLE R-SQUARED SPACING: 0.0625
Info: NONBONDED TABLE SIZE: 705 POINTS
TCL: Running for 1500000 steps
ETITLE: TS BOND ANGLE DIHED IMPRP ELECT VDW BOUNDARY MISC KINETIC TOTAL TEMP POTENTIAL TOTALAVG TEMPAVG PRESSURE GPRESSURE VOLUME PRESSAVG GPRESSAVG
ENERGY: 0 9.5793 16.8591 25.3522 0.0000 -10576.1635 1422.2511 0.0000 0.0000 1734.2245 -7367.8972 299.1777 -9102.1218 -7367.8972 299.1777 -321.9012 -239.0732 29468.8292 -321.9012 -239.0732
ENERGY: 300000 13.6449 13.1483 28.8226 0.0000 -10514.0195 1475.5523 0.0000 0.0000 1710.2536 -7272.5978 295.0424 -8982.8514 -7277.4608 298.5546 373.3695 399.5283 29990.4587 27.2643 68.2915
ENERGY: 600000 7.5581 21.7895 23.2416 0.0000 -10500.1257 1399.4398 0.0000 0.0000 1741.2683 -7306.8284 300.3929 -9048.0967 -7279.2187 299.1835 -199.5500 -78.0814 29732.8516 -198.8192 -130.1024
ENERGY: 900000 12.1147 20.7839 25.4488 0.0000 -10528.0594 1442.6097 0.0000 0.0000 1741.3675 -7285.7348 300.4100 -9027.1023 -7272.0269 299.7835 250.8369 277.5026 29498.2331 -172.2807 -107.1882
ENERGY: 1200000 7.1184 26.0351 28.8020 0.0000 -10475.0149 1445.1049 0.0000 0.0000 1651.7087 -7316.2456 284.9426 -8967.9544 -7275.2173 299.3007 529.6711 652.1623 29399.0145 -131.2877 -63.3257
ENERGY: 1500000 8.9811 13.0307 25.4267 0.0000 -10531.2874 1421.7412 0.0000 0.0000 1682.0197 -7380.0880 290.1717 -9062.1077 -7283.4556 298.5663 205.2636 307.6475 29274.8791 -76.3531 -7.4304
TCL: Running FEP window   9: Lambda1 0.39999999999999997 Lambda2 0.44999999999999996 [dLambda 0.04999999999999999]
TCL: Setting parameter firsttimestep to 0
TCL: Setting parameter alchLambda to 0.39999999999999997
Info: NONBONDED TABLE R-SQUARED SPACING: 0.0625
Info: NONBONDED TABLE SIZE: 705 POINTS
TCL: Setting parameter alchLambda2 to 0.44999999999999996
Info: NONBONDED TABLE R-SQUARED SPACING: 0.0625
Info: NONBONDED TABLE SIZE: 705 POINTS
TCL: Running for 1500000 steps
ETITLE: TS BOND ANGLE DIHED IMPRP ELECT VDW BOUNDARY MISC KINETIC TOTAL TEMP POTENTIAL TOTALAVG TEMPAVG PRESSURE GPRESSURE VOLUME PRESSAVG GPRESSAVG
ENERGY: 0 8.9811 13.0307 25.4267 0.0000 -10531.2882 1421.1632 0.0000 0.0000 1681.1647 -7381.5217 290.0242 -9062.6864 -7381.5217 290.0242 239.3510 314.7924 29274.8791 239.3510 314.7924
ENERGY: 300000 6.7748 16.3709 25.3928 0.0000 -10464.4985 1396.5487 0.0000 0.0000 1754.2175 -7265.1938 302.6268 -9019.4113 -7289.6056 297.5474 -87.7066 13.9157 29760.3608 -112.7765 -40.4980
ENERGY: 600000 8.8876 16.9481 27.9563 0.0000 -10427.5566 1402.6846 0.0000 0.0000 1735.8836 -7235.1964 299.4640 -8971.0800 -7255.6205 297.2518 -124.6484 -75.4247 29830.3820 -222.9043 -149.8175
ENERGY: 900000 12.7465 19.2718 26.5927 0.0000 -10424.8727 1363.1531 0.0000 0.0000 1728.3532 -7274.7554 298.1649 -9003.1086 -7264.5528 297.7859 -625.6201 -587.8731 29743.5860 -220.9948 -153.9094
ENERGY: 1200000 10.1102 16.9175 27.6841 0.0000 -10266.8915 1278.6238 0.0000 0.0000 1793.9196 -7139.6362 309.4760 -8933.5558 -7247.4158 299.4401 -923.4759 -919.3398 29983.2311 -248.6989 -187.1486
ENERGY: 1500000 8.3517 19.2428 28.4007 0.0000 -10402.0431 1354.4848 0.0000 0.0000 1731.2807 -7260.2824 298.6699 -8991.5631 -7249.6641 299.7182 -412.6505 -416.4533 29746.8769 -226.5531 -165.0687
TCL: Running FEP window  10: Lambda1 0.44999999999999996 Lambda2 0.49999999999999994 [dLambda 0.04999999999999999]
TCL: Setting parameter firsttimestep to 0
TCL: Setting parameter alchLambda to 0.44999999999999996
Info: NONBONDED TABLE R-SQUARED SPACING: 0.0625
Info: NONBONDED TABLE SIZE: 705 POINTS
TCL: Setting parameter alchLambda2 to 0.49999999999999994
Info: NONBONDED TABLE R-SQUARED SPACING: 0.0625
Info: NONBONDED TABLE SIZE: 705 POINTS
TCL: Running for 1500000 steps
ETITLE: TS BOND ANGLE DIHED IMPRP ELECT VDW BOUNDARY MISC KINETIC TOTAL TEMP POTENTIAL TOTALAVG TEMPAVG PRESSURE GPRESSURE VOLUME PRESSAVG GPRESSAVG
ENERGY: 0 8.3517 19.2428 28.4007 0.0000 -10402.0427 1355.1918 0.0000 0.0000 1730.3880 -7260.4676 298.5159 -8990.8556 -7260.4676 298.5159 -473.7172 -395.3959 29746.8769 -473.7172 -395.3959
ENERGY: 300000 12.8826 14.5242 27.1442 0.0000 -10434.6828 1364.0718 0.0000 0.0000 1740.5487 -7275.5114 300.2687 -9016.0600 -7245.5317 297.3851 -740.7025 -689.1878 29820.9365 -321.7488 -247.9053
ENERGY: 600000 10.7367 15.6150 35.0237 0.0000 -10332.2669 1351.1480 0.0000 0.0000 1792.6924 -7127.0512 309.2643 -8919.7435 -7253.8176 298.9012 -441.4367 -325.2937 30025.5904 -214.9999 -148.6779
ENERGY: 900000 4.5569 18.4489 25.7274 0.0000 -10349.2100 1398.0487 0.0000 0.0000 1726.3401 -7176.0880 297.8176 -8902.4282 -7247.6182 297.6666 104.6086 131.2789 30430.1381 -249.2369 -186.0896
ENERGY: 1200000 10.4629 15.1216 23.9128 0.0000 -10514.3527 1445.4925 0.0000 0.0000 1699.3011 -7320.0617 293.1530 -9019.3628 -7260.1747 297.7172 385.2601 405.5992 29675.2143 -133.3533 -71.5930
ENERGY: 1500000 6.2073 10.4397 26.3402 0.0000 -10451.7390 1355.2696 0.0000 0.0000 1679.2140 -7374.2682 289.6877 -9053.4822 -7267.4211 297.0797 -408.5811 -304.3759 29614.3409 -88.6989 -25.6879
TCL: Running FEP window  11: Lambda1 0.49999999999999994 Lambda2 0.5499999999999999 [dLambda 0.04999999999999999]
TCL: Setting parameter firsttimestep to 0
TCL: Setting parameter alchLambda to 0.49999999999999994
Info: NONBONDED TABLE R-SQUARED SPACING: 0.0625
Info: NONBONDED TABLE SIZE: 705 POINTS
TCL: Setting parameter alchLambda2 to 0.5499999999999999
Info: NONBONDED TABLE R-SQUARED SPACING: 0.0625
Info: NONBONDED TABLE SIZE: 705 POINTS
TCL: Running for 1500000 steps
ETITLE: TS BOND ANGLE DIHED IMPRP ELECT VDW BOUNDARY MISC KINETIC TOTAL TEMP POTENTIAL TOTALAVG TEMPAVG PRESSURE GPRESSURE VOLUME PRESSAVG GPRESSAVG
ENERGY: 0 6.2074 10.4397 26.3402 0.0000 -10451.7376 1354.4732 0.0000 0.0000 1678.3295 -7375.9476 289.5351 -9054.2771 -7375.9476 289.5351 -383.9750 -297.8300 29614.3409 -383.9750 -297.8300
ENERGY: 300000 10.5289 19.0101 24.3610 0.0000 -10327.8317 1348.7231 0.0000 0.0000 1752.9339 -7172.2747 302.4054 -8925.2086 -7263.6215 298.2784 -335.8030 -327.5493 29749.5075 -36.1526 16.7380
ENERGY: 600000 7.4583 18.9796 27.4687 0.0000 -10317.8592 1296.6665 0.0000 0.0000 1728.0877 -7239.1984 298.1190 -8967.2860 -7252.4219 299.2685 -805.2474 -743.1169 29930.0595 -131.5208 -64.4383
ENERGY: 900000 5.9390 16.0391 25.1659 0.0000 -10315.8375 1310.6105 0.0000 0.0000 1727.5264 -7230.5567 298.0222 -8958.0831 -7252.4264 298.6681 -790.9575 -706.2943 30257.6722 -152.4783 -96.3802
ENERGY: 1200000 8.6297 17.0743 31.8804 0.0000 -10281.4823 1294.1671 0.0000 0.0000 1759.8815 -7169.8494 303.6039 -8929.7309 -7238.5192 299.5406 -968.0630 -920.8575 30391.8267 -236.3596 -179.1952
ENERGY: 1500000 11.2221 16.5059 25.9923 0.0000 -10537.3147 1494.4268 0.0000 0.0000 1767.6814 -7221.4862 304.9495 -8989.1676 -7235.4224 299.5634 885.9150 970.1697 29613.1530 -222.8540 -164.4193
TCL: Running FEP window  12: Lambda1 0.5499999999999999 Lambda2 0.6    [dLambda 0.050000000000000044]
TCL: Setting parameter firsttimestep to 0
TCL: Setting parameter alchLambda to 0.5499999999999999
Info: NONBONDED TABLE R-SQUARED SPACING: 0.0625
Info: NONBONDED TABLE SIZE: 705 POINTS
TCL: Setting parameter alchLambda2 to 0.6
Info: NONBONDED TABLE R-SQUARED SPACING: 0.0625
Info: NONBONDED TABLE SIZE: 705 POINTS
TCL: Running for 1500000 steps
ETITLE: TS BOND ANGLE DIHED IMPRP ELECT VDW BOUNDARY MISC KINETIC TOTAL TEMP POTENTIAL TOTALAVG TEMPAVG PRESSURE GPRESSURE VOLUME PRESSAVG GPRESSAVG
ENERGY: 0 11.2221 16.5059 25.9923 0.0000 -10537.5767 1494.1440 0.0000 0.0000 1766.8225 -7222.8898 304.8013 -8989.7123 -7222.8898 304.8013 891.5355 979.8344 29613.1530 891.5355 979.8344
ENERGY: 300000 13.3579 13.2009 24.3221 0.0000 -10403.1343 1378.5821 0.0000 0.0000 1728.0803 -7245.5911 298.1178 -8973.6714 -7265.6219 299.1836 153.0744 220.0169 29574.2141 148.2386 230.5964
ENERGY: 600000 17.2023 14.8189 25.1111 0.0000 -10254.5309 1264.0180 0.0000 0.0000 1724.7114 -7208.6693 297.5366 -8933.3807 -7261.4779 298.7726 -1303.2129 -1247.0679 30409.1706 -177.8486 -128.1625
ENERGY: 900000 5.7977 18.6356 26.9061 0.0000 -10352.9551 1336.9065 0.0000 0.0000 1694.5432 -7270.1661 292.3322 -8964.7093 -7262.7058 300.0901 -424.6628 -356.8519 30043.0165 -190.7540 -143.0519
ENERGY: 1200000 10.1985 17.1390 25.2700 0.0000 -10321.6633 1339.3417 0.0000 0.0000 1755.6512 -7174.0630 302.8741 -8929.7142 -7250.9525 300.2125 -574.8968 -487.0337 30178.1674 -88.0894 -40.1460
ENERGY: 1500000 5.5209 18.1937 26.9676 0.0000 -10528.2659 1460.8667 0.0000 0.0000 1772.7178 -7243.9993 305.8184 -9016.7171 -7250.8037 300.9065 451.7403 560.8811 29740.1968 -62.7614 -7.6703
TCL: Running FEP window  13: Lambda1 0.6    Lambda2 0.65   [dLambda 0.050000000000000044]
TCL: Setting parameter firsttimestep to 0
TCL: Setting parameter alchLambda to 0.6
Info: NONBONDED TABLE R-SQUARED SPACING: 0.0625
Info: NONBONDED TABLE SIZE: 705 POINTS
TCL: Setting parameter alchLambda2 to 0.65
Info: NONBONDED TABLE R-SQUARED SPACING: 0.0625
Info: NONBONDED TABLE SIZE: 705 POINTS
TCL: Running for 1500000 steps
ETITLE: TS BOND ANGLE DIHED IMPRP ELECT VDW BOUNDARY MISC KINETIC TOTAL TEMP POTENTIAL TOTALAVG TEMPAVG PRESSURE GPRESSURE VOLUME PRESSAVG GPRESSAVG
ENERGY: 0 5.5209 18.1937 26.9676 0.0000 -10527.8714 1460.0828 0.0000 0.0000 1771.8491 -7245.2574 305.6685 -9017.1065 -7245.2574 305.6685 473.2041 566.1196 29740.1968 473.2041 566.1196
ENERGY: 300000 8.3182 17.0693 27.1013 0.0000 -10465.4035 1422.9250 0.0000 0.0000 1724.0269 -7265.9628 297.4185 -8989.9897 -7247.4101 298.5991 274.2421 325.2862 29420.6182 -24.8937 54.2267
ENERGY: 600000 9.6228 15.4130 26.7600 0.0000 -10274.0856 1267.5497 0.0000 0.0000 1762.1017 -7192.6384 303.9869 -8954.7401 -7235.4755 299.8046 -864.2617 -811.3526 29996.1553 -9.4212 58.6053
ENERGY: 900000 8.6042 18.8942 21.7774 0.0000 -10510.0524 1381.9986 0.0000 0.0000 1694.2848 -7384.4932 292.2876 -9078.7780 -7251.8356 299.2180 -150.5398 -154.8866 29557.3799 -86.9581 -33.6116
ENERGY: 1200000 5.5112 17.0856 24.4968 0.0000 -10334.8785 1355.5815 0.0000 0.0000 1753.2256 -7178.9777 302.4557 -8932.2033 -7242.2812 300.2700 -110.6512 -85.3413 30045.5606 -178.0408 -138.7346
ENERGY: 1500000 5.7034 17.8417 26.3260 0.0000 -10370.9819 1322.7246 0.0000 0.0000 1746.5502 -7251.8360 301.3041 -8998.3861 -7248.2741 300.0837 -766.5223 -598.3077 30034.6383 -282.8515 -235.5359
TCL: Running FEP window  14: Lambda1 0.65   Lambda2 0.7000000000000001 [dLambda 0.050000000000000044]
TCL: Setting parameter firsttimestep to 0
TCL: Setting parameter alchLambda to 0.65
Info: NONBONDED TABLE R-SQUARED SPACING: 0.0625
Info: NONBONDED TABLE SIZE: 705 POINTS
TCL: Setting parameter alchLambda2 to 0.7000000000000001
Info: NONBONDED TABLE R-SQUARED SPACING: 0.0625
Info: NONBONDED TABLE SIZE: 705 POINTS
TCL: Running for 1500000 steps
ETITLE: TS BOND ANGLE DIHED IMPRP ELECT VDW BOUNDARY MISC KINETIC TOTAL TEMP POTENTIAL TOTALAVG TEMPAVG PRESSURE GPRESSURE VOLUME PRESSAVG GPRESSAVG
ENERGY: 0 5.7034 17.8417 26.3260 0.0000 -10371.4076 1323.2227 0.0000 0.0000 1745.7442 -7252.5696 301.1651 -8998.3138 -7252.5696 301.1651 -672.3561 -575.5596 30034.6383 -672.3561 -575.5596
ENERGY: 300000 8.4135 13.9116 26.7146 0.0000 -10354.1305 1356.1599 0.0000 0.0000 1771.1875 -7177.7433 305.5544 -8948.9308 -7228.3259 302.1390 -248.9799 -185.3525 29880.6525 -14.2243 85.1625
ENERGY: 600000 9.4664 17.7013 25.5436 0.0000 -10360.6359 1354.8153 0.0000 0.0000 1713.2944 -7239.8149 295.5670 -8953.1092 -7235.9300 300.9135 -128.7081 -144.1436 29722.6227 -105.8030 -28.6558
ENERGY: 900000 6.7508 18.9206 26.1023 0.0000 -10499.2346 1445.1290 0.0000 0.0000 1702.1047 -7300.2272 293.6366 -9002.3319 -7231.0920 302.4095 455.0621 567.6651 29640.8358 -98.5222 -20.7928
ENERGY: 1200000 8.8092 20.1738 28.3509 0.0000 -10398.0992 1338.2599 0.0000 0.0000 1731.5201 -7270.9855 298.7112 -9002.5055 -7258.0707 300.3204 -453.3818 -381.1029 29998.1619 -116.9117 -43.4584
ENERGY: 1500000 10.7524 15.7713 27.4587 0.0000 -10487.6737 1373.2103 0.0000 0.0000 1728.2481 -7332.2329 298.1467 -9060.4810 -7269.9209 298.7258 229.4286 275.8044 29274.1293 -57.0988 10.8266
TCL: Running FEP window  15: Lambda1 0.7000000000000001 Lambda2 0.7500000000000001 [dLambda 0.050000000000000044]
TCL: Setting parameter firsttimestep to 0
TCL: Setting parameter alchLambda to 0.7000000000000001
Info: NONBONDED TABLE R-SQUARED SPACING: 0.0625
Info: NONBONDED TABLE SIZE: 705 POINTS
TCL: Setting parameter alchLambda2 to 0.7500000000000001
Info: NONBONDED TABLE R-SQUARED SPACING: 0.0625
Info: NONBONDED TABLE SIZE: 705 POINTS
TCL: Running for 1500000 steps
ETITLE: TS BOND ANGLE DIHED IMPRP ELECT VDW BOUNDARY MISC KINETIC TOTAL TEMP POTENTIAL TOTALAVG TEMPAVG PRESSURE GPRESSURE VOLUME PRESSAVG GPRESSAVG
ENERGY: 0 10.7524 15.7713 27.4587 0.0000 -10488.4872 1373.2442 0.0000 0.0000 1727.4109 -7333.8497 298.0023 -9061.2606 -7333.8497 298.0023 203.8501 296.1408 29274.1293 203.8501 296.1408
ENERGY: 300000 6.6603 17.1127 27.0945 0.0000 -10319.2330 1324.6537 0.0000 0.0000 1762.2609 -7181.4509 304.0144 -8943.7118 -7271.0581 298.8417 -471.0217 -405.9442 30301.6788 -152.5416 -79.3783
ENERGY: 600000 5.7677 18.3266 23.5873 0.0000 -10427.4966 1406.4881 0.0000 0.0000 1713.7992 -7259.5276 295.6541 -8973.3268 -7256.7300 297.2787 182.6312 252.8304 29834.3206 -74.3518 -11.5987
ENERGY: 900000 13.9762 18.4145 23.9240 0.0000 -10457.5333 1389.3944 0.0000 0.0000 1693.7891 -7318.0352 292.2021 -9011.8243 -7274.9669 297.1177 -38.4074 65.5963 29547.9631 -78.3912 -6.5648
ENERGY: 1200000 12.5046 13.0665 26.6615 0.0000 -10470.9628 1447.6880 0.0000 0.0000 1736.2639 -7234.7783 299.5296 -8971.0422 -7253.6393 298.3840 185.1662 181.6378 30434.9713 -61.1121 5.7333
ENERGY: 1500000 9.7782 12.8537 19.4807 0.0000 -10524.1019 1435.9589 0.0000 0.0000 1706.8345 -7339.1959 294.4526 -9046.0304 -7257.4646 297.9498 298.7244 354.0536 29761.8551 -91.2615 -28.1476
TCL: Running FEP window  16: Lambda1 0.7500000000000001 Lambda2 0.8000000000000002 [dLambda 0.050000000000000044]
TCL: Setting parameter firsttimestep to 0
TCL: Setting parameter alchLambda to 0.7500000000000001
Info: NONBONDED TABLE R-SQUARED SPACING: 0.0625
Info: NONBONDED TABLE SIZE: 705 POINTS
TCL: Setting parameter alchLambda2 to 0.8000000000000002
Info: NONBONDED TABLE R-SQUARED SPACING: 0.0625
Info: NONBONDED TABLE SIZE: 705 POINTS
TCL: Running for 1500000 steps
ETITLE: TS BOND ANGLE DIHED IMPRP ELECT VDW BOUNDARY MISC KINETIC TOTAL TEMP POTENTIAL TOTALAVG TEMPAVG PRESSURE GPRESSURE VOLUME PRESSAVG GPRESSAVG
ENERGY: 0 9.7782 12.8537 19.4807 0.0000 -10524.5745 1435.1912 0.0000 0.0000 1705.9630 -7341.3077 294.3022 -9047.2707 -7341.3077 294.3022 265.1049 362.0372 29761.8551 265.1049 362.0372
ENERGY: 300000 6.1325 19.0718 28.5908 0.0000 -10409.9930 1384.8151 0.0000 0.0000 1715.3833 -7255.9994 295.9274 -8971.3827 -7255.6367 299.4896 -155.7818 -75.5506 29968.0985 144.7261 194.1314
ENERGY: 600000 9.5692 18.5767 27.4078 0.0000 -10248.2005 1291.4964 0.0000 0.0000 1725.1338 -7176.0166 297.6095 -8901.1504 -7265.9806 299.1832 -682.6574 -629.0915 30424.8123 110.1244 145.3282
ENERGY: 900000 8.1355 16.9828 26.6291 0.0000 -10370.1035 1345.5199 0.0000 0.0000 1768.4344 -7204.4018 305.0794 -8972.8362 -7262.6412 298.5408 -398.6703 -380.1421 30386.7246 79.6519 126.8349
ENERGY: 1200000 7.7678 15.1737 27.2795 0.0000 -10350.4737 1363.4916 0.0000 0.0000 1695.4065 -7241.3545 292.4811 -8936.7609 -7258.9592 299.2267 -525.3253 -465.4750 30392.6647 62.4709 111.3490
ENERGY: 1500000 12.8246 25.5347 26.4101 0.0000 -10553.5530 1472.7347 0.0000 0.0000 1704.5479 -7311.5010 294.0581 -9016.0489 -7264.3146 299.4556 722.0768 806.5569 29560.6451 213.2738 259.0085
TCL: Running FEP window  17: Lambda1 0.8000000000000002 Lambda2 0.8500000000000002 [dLambda 0.050000000000000044]
TCL: Setting parameter firsttimestep to 0
TCL: Setting parameter alchLambda to 0.8000000000000002
Info: NONBONDED TABLE R-SQUARED SPACING: 0.0625
Info: NONBONDED TABLE SIZE: 705 POINTS
TCL: Setting parameter alchLambda2 to 0.8500000000000002
Info: NONBONDED TABLE R-SQUARED SPACING: 0.0625
Info: NONBONDED TABLE SIZE: 705 POINTS
TCL: Running for 1500000 steps
ETITLE: TS BOND ANGLE DIHED IMPRP ELECT VDW BOUNDARY MISC KINETIC TOTAL TEMP POTENTIAL TOTALAVG TEMPAVG PRESSURE GPRESSURE VOLUME PRESSAVG GPRESSAVG
ENERGY: 0 12.8246 25.5347 26.4101 0.0000 -10553.9774 1472.3361 0.0000 0.0000 1703.7021 -7313.1698 293.9122 -9016.8719 -7313.1698 293.9122 726.5107 817.7246 29560.6451 726.5107 817.7246
ENERGY: 300000 8.4981 14.6393 27.0884 0.0000 -10398.7616 1371.6837 0.0000 0.0000 1704.3871 -7272.4649 294.0304 -8976.8520 -7245.9573 298.0324 -381.1605 -381.6064 30047.9832 169.1579 238.2633
ENERGY: 600000 11.3492 21.4184 26.0387 0.0000 -10522.0393 1399.6928 0.0000 0.0000 1717.7061 -7345.8340 296.3281 -9063.5402 -7267.6631 298.2635 28.3597 45.0275 30124.1277 -37.3656 24.4225
ENERGY: 900000 6.6992 11.1024 27.1642 0.0000 -10523.4619 1419.0063 0.0000 0.0000 1721.3740 -7338.1156 296.9609 -9059.4897 -7272.8797 297.6525 -65.6654 41.4866 29678.8249 -21.6204 35.1953
ENERGY: 1200000 7.4653 24.9749 26.7334 0.0000 -10484.3058 1372.6135 0.0000 0.0000 1742.7740 -7309.7446 300.6527 -9052.5187 -7274.0837 298.8883 -497.7392 -471.7106 29937.6887 -23.9871 35.9112
ENERGY: 1500000 9.9491 16.7809 23.4192 0.0000 -10320.0493 1293.6527 0.0000 0.0000 1726.6332 -7249.6142 297.8681 -8976.2474 -7266.0850 298.9744 -994.7153 -907.0974 29898.9185 -157.1364 -104.8950
TCL: Running FEP window  18: Lambda1 0.8500000000000002 Lambda2 0.9000000000000002 [dLambda 0.050000000000000044]
TCL: Setting parameter firsttimestep to 0
TCL: Setting parameter alchLambda to 0.8500000000000002
Info: NONBONDED TABLE R-SQUARED SPACING: 0.0625
Info: NONBONDED TABLE SIZE: 705 POINTS
TCL: Setting parameter alchLambda2 to 0.9000000000000002
Info: NONBONDED TABLE R-SQUARED SPACING: 0.0625
Info: NONBONDED TABLE SIZE: 705 POINTS
TCL: Running for 1500000 steps
ETITLE: TS BOND ANGLE DIHED IMPRP ELECT VDW BOUNDARY MISC KINETIC TOTAL TEMP POTENTIAL TOTALAVG TEMPAVG PRESSURE GPRESSURE VOLUME PRESSAVG GPRESSAVG
ENERGY: 0 9.9491 16.7809 23.4192 0.0000 -10320.4238 1294.0180 0.0000 0.0000 1725.7938 -7250.4627 297.7233 -8976.2565 -7250.4627 297.7233 -974.0070 -882.3384 29898.9185 -974.0070 -882.3384
ENERGY: 300000 9.6723 14.1275 27.0648 0.0000 -10386.1980 1421.9316 0.0000 0.0000 1743.0136 -7170.3882 300.6940 -8913.4018 -7229.0017 300.2730 373.8100 394.2056 30527.6575 -136.2446 -79.8351
ENERGY: 600000 8.9952 12.3004 24.6449 0.0000 -10483.3559 1457.9304 0.0000 0.0000 1727.6373 -7251.8477 298.0414 -8979.4850 -7233.9965 300.1560 724.7207 779.4554 29930.2761 46.2186 103.8366
ENERGY: 900000 7.3241 18.2506 24.3323 0.0000 -10390.8022 1379.9000 0.0000 0.0000 1747.7789 -7213.2164 301.5161 -8960.9952 -7238.6775 300.8011 -237.3336 -154.4837 30479.8953 89.0755 147.5909
ENERGY: 1200000 8.7406 19.7211 29.3169 0.0000 -10452.4801 1378.6108 0.0000 0.0000 1679.3512 -7336.7396 289.7113 -9016.0908 -7247.1624 300.1258 -106.8154 -96.7402 29967.7129 34.0139 85.3625
ENERGY: 1500000 3.7714 17.5542 25.5216 0.0000 -10395.5895 1358.9046 0.0000 0.0000 1752.7809 -7237.0567 302.3790 -8989.8376 -7246.8991 300.2471 -444.9599 -363.1120 30404.6362 7.4811 61.1318
TCL: Running FEP window  19: Lambda1 0.9000000000000002 Lambda2 0.9500000000000003 [dLambda 0.050000000000000044]
TCL: Setting parameter firsttimestep to 0
TCL: Setting parameter alchLambda to 0.9000000000000002
Info: NONBONDED TABLE R-SQUARED SPACING: 0.0625
Info: NONBONDED TABLE SIZE: 705 POINTS
TCL: Setting parameter alchLambda2 to 0.9500000000000003
Info: NONBONDED TABLE R-SQUARED SPACING: 0.0625
Info: NONBONDED TABLE SIZE: 705 POINTS
TCL: Running for 1500000 steps
ETITLE: TS BOND ANGLE DIHED IMPRP ELECT VDW BOUNDARY MISC KINETIC TOTAL TEMP POTENTIAL TOTALAVG TEMPAVG PRESSURE GPRESSURE VOLUME PRESSAVG GPRESSAVG
ENERGY: 0 3.7715 17.5543 25.5216 0.0000 -10396.1735 1358.1868 0.0000 0.0000 1751.9155 -7239.2239 302.2297 -8991.1394 -7239.2239 302.2297 -435.1180 -352.9520 30404.6362 -435.1180 -352.9520
ENERGY: 300000 10.9067 19.3517 24.2771 0.0000 -10559.7547 1479.3692 0.0000 0.0000 1732.7121 -7293.1379 298.9168 -9025.8500 -7256.3732 300.1504 683.5754 731.4495 29745.6885 -0.7852 44.9864
ENERGY: 600000 5.5165 19.8490 26.6992 0.0000 -10373.9318 1260.4718 0.0000 0.0000 1715.4993 -7345.8960 295.9474 -9061.3954 -7276.9734 301.0219 -1061.2734 -1039.9955 30033.2996 -123.7403 -85.7765
ENERGY: 900000 8.6280 17.3814 24.1689 0.0000 -10298.9368 1304.4203 0.0000 0.0000 1759.1946 -7185.1436 303.4854 -8944.3382 -7273.8753 299.3333 -646.4693 -562.1851 30213.0983 -236.4432 -182.9320
ENERGY: 1200000 6.0997 18.7315 23.2544 0.0000 -10519.4152 1485.8136 0.0000 0.0000 1759.7664 -7225.7495 303.5841 -8985.5159 -7273.5044 299.9315 791.7723 892.7739 29892.0110 -80.6707 -29.7572
ENERGY: 1500000 11.2964 22.6274 28.4939 0.0000 -10268.8853 1308.7567 0.0000 0.0000 1724.1273 -7173.5836 297.4358 -8897.7109 -7270.0499 299.4337 -548.8825 -404.8976 30142.7220 -157.6962 -98.1661
TCL: Running FEP window  20: Lambda1 0.9500000000000003 Lambda2 1.0    [dLambda 0.04999999999999971]
TCL: Setting parameter firsttimestep to 0
TCL: Setting parameter alchLambda to 0.9500000000000003
Info: NONBONDED TABLE R-SQUARED SPACING: 0.0625
Info: NONBONDED TABLE SIZE: 705 POINTS
TCL: Setting parameter alchLambda2 to 1.0
Info: NONBONDED TABLE R-SQUARED SPACING: 0.0625
Info: NONBONDED TABLE SIZE: 705 POINTS
TCL: Running for 1500000 steps
ETITLE: TS BOND ANGLE DIHED IMPRP ELECT VDW BOUNDARY MISC KINETIC TOTAL TEMP POTENTIAL TOTALAVG TEMPAVG PRESSURE GPRESSURE VOLUME PRESSAVG GPRESSAVG
ENERGY: 0 11.2964 22.6274 28.4939 0.0000 -10269.6937 1309.1261 0.0000 0.0000 1723.2708 -7174.8791 297.2881 -8898.1498 -7174.8791 297.2881 -482.2038 -380.4572 30142.7220 -482.2038 -380.4572
ENERGY: 300000 8.0086 17.6398 25.0658 0.0000 -10425.1821 1366.1106 0.0000 0.0000 1734.7806 -7273.5767 299.2737 -9008.3573 -7228.7833 302.5490 -285.8103 -265.1597 30156.6252 -493.0160 -410.9547
ENERGY: 600000 8.2362 15.6442 25.8925 0.0000 -10424.2796 1372.7710 0.0000 0.0000 1706.9922 -7294.7435 294.4798 -9001.7357 -7253.9922 300.9983 149.3579 190.2170 29971.3165 -245.2506 -169.9372
ENERGY: 900000 8.1181 11.2933 28.7756 0.0000 -10416.0616 1385.6035 0.0000 0.0000 1775.1724 -7207.0986 306.2418 -8982.2710 -7253.9652 300.8045 64.3319 59.9949 29830.5273 -267.4217 -198.7129
ENERGY: 1200000 6.2107 11.9360 29.2169 0.0000 -10387.7268 1282.2697 0.0000 0.0000 1750.1816 -7307.9118 301.9306 -9058.0934 -7252.1540 300.6452 -785.2789 -752.2638 29733.3868 -247.7969 -193.2427
ENERGY: 1500000 5.2931 18.8038 23.5768 0.0000 -10406.1054 1428.8298 0.0000 0.0000 1735.5790 -7194.0229 299.4114 -8929.6019 -7243.0668 300.8485 1088.2151 1125.6300 29691.4281 -140.9368 -84.2665
TCL: Exiting due to exit command.
