Info: SIMULATION PARAMETERS:
Info: TIMESTEP               2
Info: NUMBER OF STEPS        0
Info: STEPS PER CYCLE        10
Info: PERIODIC CELL BASIS 1  32.143 0 0
Info: PERIODIC CELL BASIS 2  0 32.2923 0
Info: PERIODIC CELL BASIS 3  0 0 29.1212
Info: PERIODIC CELL CENTER   0 0 0
Info: WRAPPING WATERS AROUND PERIODIC BOUNDARIES ON OUTPUT.
Info: WRAPPING ALL CLUSTERS AROUND PERIODIC BOUNDARIES ON OUTPUT.
Info: FIRST LDB TIMESTEP     50
Info: LAST LDB TIMESTEP     -1
Info: HOM BACKGROUND SCALING 1
Info: PME BACKGROUND SCALING 1
Info: MIN ATOMS PER PATCH    40
Info: EMPTY PATCH LOAD       40 ATOMS
Info: VELOCITY FILE          mobley_2197088_equil.vel
Info: CENTER OF MASS MOVING INITIALLY? NO
Info: DIELECTRIC             1
Info: EXCLUDE                SCALED ONE-FOUR
Info: 1-4 ELECTROSTATICS SCALED BY 0.833333
Info: MODIFIED 1-4 VDW PARAMETERS WILL BE USED
Info: DCD FILENAME           mobley_2197088_prod.dcd
Info: DCD FREQUENCY          100000
Info: DCD FIRST STEP         100000
Info: DCD FILE WILL CONTAIN UNIT CELL DATA
Info: XST FILENAME           mobley_2197088_prod.xst
Info: XST FREQUENCY          100000
Info: NO VELOCITY DCD OUTPUT
Info: NO FORCE DCD OUTPUT
Info: OUTPUT FILENAME        mobley_2197088_prod
Info: BINARY OUTPUT FILES WILL BE USED
Info: RESTART FILENAME       mobley_2197088_prod.restart
Info: RESTART FREQUENCY      100000
Info: BINARY RESTART FILES WILL BE USED
Info: CUTOFF                 9
Info: PAIRLIST DISTANCE      11
Info: PAIRLIST SHRINK RATE   0.01
Info: PAIRLIST GROW RATE     0.01
Info: PAIRLIST TRIGGER       0.3
Info: PAIRLISTS PER CYCLE    2
Info: PAIRLISTS ENABLED
Info: MARGIN                 2
Info: HYDROGEN GROUP CUTOFF  2.5
Info: PATCH DIMENSION        15.5
Info: ENERGY OUTPUT STEPS    100000
Info: ENERGY EVALUATION STEPS    100000
Info: OUTPUT ENERGY PRECISION 4
Info: CROSSTERM ENERGY INCLUDED IN DIHEDRAL
Info: TIMING OUTPUT STEPS    1000000
Info: PRESSURE OUTPUT STEPS  100000
Info: ALCHEMICAL FEP ON
Info: FEP CURRENT LAMBDA VALUE     0
Info: FEP COMPARISON LAMBDA VALUE  0.05
Info: FEP INTRA-ALCHEMICAL NON-BONDED INTERACTIONS WILL BE RETAINED
Info: FEP INTRA-ALCHEMICAL BONDED INTERACTIONS WILL BE RETAINED
Info: FEP VDW SHIFTING COEFFICIENT 5
Info: FEP ELEC. ACTIVE FOR ANNIHILATED PARTICLES BETWEEN LAMBDA = 0 AND LAMBDA = 0.5
Info: FEP ELEC. ACTIVE FOR EXNIHILATED PARTICLES BETWEEN LAMBDA = 0.5 AND LAMBDA = 1
Info: FEP VDW ACTIVE FOR ANNIHILATED PARTICLES BETWEEN LAMBDA = 0 AND LAMBDA = 1
Info: FEP VDW ACTIVE FOR EXNIHILATED PARTICLES BETWEEN LAMBDA = 0 AND LAMBDA = 1
Info: FEP BOND ACTIVE FOR ANNIHILATED PARTICLES BETWEEN LAMBDA = 1 AND LAMBDA = 1
Info: FEP BOND ACTIVE FOR EXNIHILATED PARTICLES BETWEEN LAMBDA = 0 AND LAMBDA = 0
Info: LANGEVIN DYNAMICS ACTIVE
Info: LANGEVIN TEMPERATURE   300
Info: LANGEVIN USING BBK INTEGRATOR
Info: LANGEVIN DAMPING COEFFICIENT IS 1 INVERSE PS
Info: LANGEVIN DYNAMICS APPLIED TO HYDROGENS
Info: LANGEVIN PISTON PRESSURE CONTROL ACTIVE
Info:        TARGET PRESSURE IS 1.01325 BAR
Info:     OSCILLATION PERIOD IS 50 FS
Info:             DECAY TIME IS 25 FS
Info:     PISTON TEMPERATURE IS 300 K
Info:       PRESSURE CONTROL IS GROUP-BASED
Info:    INITIAL STRAIN RATE IS 0.000537486 0.000537486 0.000537486
Info:       CELL FLUCTUATION IS ISOTROPIC
Info: PARTICLE MESH EWALD (PME) ACTIVE
Info: PME TOLERANCE               1e-06
Info: PME EWALD COEFFICIENT       0.348832
Info: PME INTERPOLATION ORDER     4
Info: PME GRID DIMENSIONS         36 36 32
Info: PME MAXIMUM GRID SPACING    1
Info: PME CALCULATION WILL BE PERFORMED ON GPU
Info: FULL ELECTROSTATIC EVALUATION FREQUENCY      2
Info: USING VERLET I (r-RESPA) MTS SCHEME.
Info: C1 SPLITTING OF LONG RANGE ELECTROSTATICS
Info: PLACING ATOMS IN PATCHES BY HYDROGEN GROUPS
Info: RIGID BONDS TO HYDROGEN : ALL
Info:         ERROR TOLERANCE : 1e-08
Info:          MAX ITERATIONS : 100
Info: RIGID WATER USING SETTLE ALGORITHM
Info: RANDOM NUMBER SEED     1744085641
Info: USE HYDROGEN BONDS?    NO
Info: Using AMBER format force field!
Info: AMBER PARM FILE        mobley_2197088.prmtop
Info: COORDINATE PDB         mobley_2197088.pdb
Info: Exclusions will be read from PARM file!
Info: SCNB (VDW SCALING)     2
Info: USING ARITHMETIC MEAN TO COMBINE L-J SIGMA PARAMETERS
Info: BINARY COORDINATES     mobley_2197088_equil.coor
Info: SUMMARY OF PARAMETERS:
Info: 4 BONDS
Info: 3 ANGLES
Info:   3 HARMONIC
Info:   0 COSINE-BASED
Info: 5 DIHEDRAL
Info: 0 IMPROPER
Info: 0 CROSSTERM
Info: 0 VDW
Info: 10 VDW_PAIRS
Info: 0 NBTHOLE_PAIRS
Info: To read alchdata from file: mobley_2197088.pdb
Info: To read alchflag data from column: 5
Info: STRUCTURE SUMMARY:
Info: 2918 ATOMS
Info: 2917 BONDS
Info: 60 ANGLES
Info: 95 DIHEDRALS
Info: 0 IMPROPERS
Info: 0 CROSSTERMS
Info: 3058 EXCLUSIONS
Info: 2908 RIGID BONDS
Info: ALCH: 0 ATOMS TO DISAPPEAR IN FINAL STATE
Info: ALCH: 32 ATOMS TO APPEAR IN FINAL STATE
Info: 5846 DEGREES OF FREEDOM
Info: 972 HYDROGEN GROUPS
Info: 4 ATOMS IN LARGEST HYDROGEN GROUP
Info: 972 MIGRATION GROUPS
Info: 4 ATOMS IN LARGEST MIGRATION GROUP
Info: TOTAL MASS = 17473.7 amu
Info: TOTAL CHARGE = -0.000500001 e
Info: MASS DENSITY = 0.959949 g/cm^3
Info: ATOM DENSITY = 0.0965362 atoms/A^3
Info: ADDED 0 IMPLICIT EXCLUSIONS
Info: NONBONDED TABLE R-SQUARED SPACING: 0.0625
Info: NONBONDED TABLE SIZE: 705 POINTS
Info: REDUCING NUMBER OF PATCHES TO IMPROVE LOAD BALANCE
Info: REMOVING COM VELOCITY -0.120888 0.098369 -0.0222475
Info: Use 3D box decompostion in PME FFT.
Info: Updated CUDA force table with 4096 elements.
Info: Updated CUDA LJ table with 4 x 4 elements.
Info: Found 35 unique exclusion lists needing 148 bytes
TCL: Running for 1500000 steps
ETITLE: TS BOND ANGLE DIHED IMPRP ELECT VDW BOUNDARY MISC KINETIC TOTAL TEMP POTENTIAL TOTALAVG TEMPAVG PRESSURE GPRESSURE VOLUME PRESSAVG GPRESSAVG
ENERGY: 0 4.6056 13.5887 5.7383 0.0000 -10335.7272 1306.2593 0.0000 0.0000 1759.1787 -7246.3567 302.8597 -9005.5354 -7246.3567 302.8597 -953.7199 -873.2696 30226.9986 -953.7199 -873.2696
ENERGY: 300000 6.0679 16.8233 4.6654 0.0000 -10648.4835 1473.4135 0.0000 0.0000 1686.6626 -7460.8508 290.3754 -9147.5134 -7338.0318 298.7009 99.5293 196.7961 29509.8019 -123.0415 -62.4755
ENERGY: 600000 2.9135 19.2065 6.7746 0.0000 -10361.2998 1241.5588 0.0000 0.0000 1766.6532 -7324.1934 304.1465 -9090.8466 -7326.3021 299.4728 -1638.3523 -1572.4580 29700.3592 -377.0647 -301.0321
ENERGY: 900000 2.0998 15.5136 6.3655 0.0000 -10355.7312 1314.3782 0.0000 0.0000 1697.8776 -7319.4964 292.3062 -9017.3740 -7322.7467 298.1290 -876.2554 -833.9193 30021.3586 -239.4282 -170.2865
ENERGY: 1200000 4.3315 11.1144 4.3890 0.0000 -10374.2722 1308.7331 0.0000 0.0000 1707.9151 -7337.7891 294.0342 -9045.7042 -7331.0735 296.4996 -951.6271 -883.3604 29935.2173 -330.0440 -262.8150
ENERGY: 1500000 2.5163 23.5145 6.8898 0.0000 -10534.7696 1480.8333 0.0000 0.0000 1849.1307 -7171.8849 318.3458 -9021.0157 -7319.5274 298.4652 338.8445 403.7565 30507.0175 -232.5157 -162.6114
TCL: Running FEP window   2: Lambda1 0.05   Lambda2 0.1    [dLambda 0.05  ]
TCL: Setting parameter firsttimestep to 0
TCL: Setting parameter alchLambda to 0.05
Info: NONBONDED TABLE R-SQUARED SPACING: 0.0625
Info: NONBONDED TABLE SIZE: 705 POINTS
TCL: Setting parameter alchLambda2 to 0.1
Info: NONBONDED TABLE R-SQUARED SPACING: 0.0625
Info: NONBONDED TABLE SIZE: 705 POINTS
TCL: Running for 1500000 steps
ETITLE: TS BOND ANGLE DIHED IMPRP ELECT VDW BOUNDARY MISC KINETIC TOTAL TEMP POTENTIAL TOTALAVG TEMPAVG PRESSURE GPRESSURE VOLUME PRESSAVG GPRESSAVG
ENERGY: 0 2.5163 23.5145 6.8898 0.0000 -10534.7695 1484.9740 0.0000 0.0000 1848.3077 -7168.5671 318.2042 -9016.8748 -7168.5671 318.2042 345.5158 414.1961 30507.0175 345.5158 414.1961
ENERGY: 300000 2.8127 13.3776 6.9972 0.0000 -10461.8178 1367.1700 0.0000 0.0000 1729.3526 -7342.1075 297.7249 -9071.4601 -7315.0659 302.2795 -462.5868 -386.4233 29645.1972 -93.2196 -23.1455
ENERGY: 600000 3.5754 14.5495 6.4116 0.0000 -10449.4078 1348.5992 0.0000 0.0000 1796.7485 -7279.5237 309.3277 -9076.2722 -7324.6247 302.1265 -352.0699 -290.9060 29426.5948 -161.5561 -92.0118
ENERGY: 900000 4.9410 16.3881 6.3344 0.0000 -10455.0108 1386.6077 0.0000 0.0000 1808.6717 -7232.0678 311.3804 -9040.7395 -7307.3768 302.6069 -233.5808 -143.4095 29813.0499 -119.6538 -52.1439
ENERGY: 1200000 1.9112 13.8184 3.8683 0.0000 -10499.7320 1399.4990 0.0000 0.0000 1745.5901 -7335.0451 300.5203 -9080.6351 -7307.9735 302.8536 -335.5435 -238.8807 29906.6454 -51.0737 17.1410
ENERGY: 1500000 2.8775 11.7431 7.3442 0.0000 -10561.0290 1505.0031 0.0000 0.0000 1776.6370 -7257.4240 305.8654 -9034.0610 -7309.0437 302.1294 344.3448 387.5498 30549.8273 -104.6203 -43.3742
TCL: Running FEP window   3: Lambda1 0.1    Lambda2 0.15000000000000002 [dLambda 0.05000000000000002]
TCL: Setting parameter firsttimestep to 0
TCL: Setting parameter alchLambda to 0.1
Info: NONBONDED TABLE R-SQUARED SPACING: 0.0625
Info: NONBONDED TABLE SIZE: 705 POINTS
TCL: Setting parameter alchLambda2 to 0.15000000000000002
Info: NONBONDED TABLE R-SQUARED SPACING: 0.0625
Info: NONBONDED TABLE SIZE: 705 POINTS
TCL: Running for 1500000 steps
ETITLE: TS BOND ANGLE DIHED IMPRP ELECT VDW BOUNDARY MISC KINETIC TOTAL TEMP POTENTIAL TOTALAVG TEMPAVG PRESSURE GPRESSURE VOLUME PRESSAVG GPRESSAVG
ENERGY: 0 2.8776 11.7431 7.3442 0.0000 -10561.0300 1509.7773 0.0000 0.0000 1775.7715 -7253.5163 305.7163 -9029.2879 -7253.5163 305.7163 318.4565 402.1081 30549.8273 318.4565 402.1081
ENERGY: 300000 4.6963 12.8227 5.9314 0.0000 -10527.8769 1412.0984 0.0000 0.0000 1731.7528 -7360.5753 298.1381 -9092.3281 -7304.5783 299.7467 -96.6094 -36.4202 29739.5639 -179.0553 -109.1430
ENERGY: 600000 1.5893 16.0911 5.1985 0.0000 -10524.9009 1364.9846 0.0000 0.0000 1695.1770 -7441.8605 291.8412 -9137.0375 -7335.5111 297.8893 -551.7936 -558.6651 29712.0298 -187.0642 -128.7260
ENERGY: 900000 4.0087 9.8461 5.6182 0.0000 -10489.0778 1433.9077 0.0000 0.0000 1708.6233 -7327.0737 294.1561 -9035.6970 -7338.1453 297.1114 123.6182 195.5024 29759.5149 -142.4574 -88.2048
ENERGY: 1200000 3.0166 22.0287 4.4158 0.0000 -10534.2022 1373.3658 0.0000 0.0000 1737.6041 -7393.7712 299.1455 -9131.3753 -7341.4686 297.7095 -635.3755 -593.1613 29554.0268 -168.9600 -119.6724
ENERGY: 1500000 1.7155 12.4324 3.8964 0.0000 -10547.3423 1406.1024 0.0000 0.0000 1746.2524 -7376.9431 300.6343 -9123.1955 -7326.2977 298.2273 49.5798 85.2103 29484.8968 -74.2181 -23.1250
TCL: Running FEP window   4: Lambda1 0.15000000000000002 Lambda2 0.2    [dLambda 0.04999999999999999]
TCL: Setting parameter firsttimestep to 0
TCL: Setting parameter alchLambda to 0.15000000000000002
Info: NONBONDED TABLE R-SQUARED SPACING: 0.0625
Info: NONBONDED TABLE SIZE: 705 POINTS
TCL: Setting parameter alchLambda2 to 0.2
Info: NONBONDED TABLE R-SQUARED SPACING: 0.0625
Info: NONBONDED TABLE SIZE: 705 POINTS
TCL: Running for 1500000 steps
ETITLE: TS BOND ANGLE DIHED IMPRP ELECT VDW BOUNDARY MISC KINETIC TOTAL TEMP POTENTIAL TOTALAVG TEMPAVG PRESSURE GPRESSURE VOLUME PRESSAVG GPRESSAVG
ENERGY: 0 1.7155 12.4324 3.8964 0.0000 -10547.3425 1406.2721 0.0000 0.0000 1745.4345 -7377.5916 300.4935 -9123.0260 -7377.5916 300.4935 17.5105 92.1766 29484.8968 17.5105 92.1766
ENERGY: 300000 3.2725 14.3678 5.7915 0.0000 -10299.4675 1339.1380 0.0000 0.0000 1710.3070 -7226.5908 294.4460 -8936.8978 -7270.0479 299.7436 -844.5233 -694.8806 30630.6419 -226.0191 -142.8100
ENERGY: 600000 6.9422 18.8707 6.0008 0.0000 -10396.0700 1351.7011 0.0000 0.0000 1734.6200 -7277.9353 298.6317 -9012.5553 -7282.3474 300.1346 -651.3544 -528.6784 29982.4631 -351.0534 -265.8540
ENERGY: 900000 3.6685 19.5783 4.4861 0.0000 -10425.1009 1393.3571 0.0000 0.0000 1706.0378 -7297.9731 293.7110 -9004.0109 -7277.3809 299.6379 -286.2167 -191.5437 29985.3491 -253.9858 -172.0002
ENERGY: 1200000 5.1379 12.3499 6.4545 0.0000 -10507.3237 1427.1068 0.0000 0.0000 1767.8655 -7288.4090 304.3552 -9056.2745 -7281.9434 300.1934 162.0054 276.1015 29732.9889 -213.7956 -128.4601
ENERGY: 1500000 3.9698 15.9828 5.6950 0.0000 -10498.6784 1453.9006 0.0000 0.0000 1711.4948 -7307.6354 294.6505 -9019.1302 -7294.2747 298.7568 534.3542 679.5026 29745.8570 -147.1355 -62.3654
TCL: Running FEP window   5: Lambda1 0.2    Lambda2 0.25   [dLambda 0.04999999999999999]
TCL: Setting parameter firsttimestep to 0
TCL: Setting parameter alchLambda to 0.2
Info: NONBONDED TABLE R-SQUARED SPACING: 0.0625
Info: NONBONDED TABLE SIZE: 705 POINTS
TCL: Setting parameter alchLambda2 to 0.25
Info: NONBONDED TABLE R-SQUARED SPACING: 0.0625
Info: NONBONDED TABLE SIZE: 705 POINTS
TCL: Running for 1500000 steps
ETITLE: TS BOND ANGLE DIHED IMPRP ELECT VDW BOUNDARY MISC KINETIC TOTAL TEMP POTENTIAL TOTALAVG TEMPAVG PRESSURE GPRESSURE VOLUME PRESSAVG GPRESSAVG
ENERGY: 0 3.9698 15.9828 5.6950 0.0000 -10498.6795 1454.8504 0.0000 0.0000 1710.6164 -7307.5650 294.4993 -9018.1814 -7307.5650 294.4993 603.5541 688.1378 29745.8570 603.5541 688.1378
ENERGY: 300000 3.0287 20.9609 4.7519 0.0000 -10506.7359 1444.8620 0.0000 0.0000 1702.8109 -7330.3215 293.1555 -9033.1324 -7316.1041 298.3875 557.8036 616.6032 29212.6031 -92.5459 -82.4949
ENERGY: 600000 2.7817 14.3328 5.7654 0.0000 -10527.4978 1438.1513 0.0000 0.0000 1706.4828 -7359.9837 293.7876 -9066.4665 -7313.6489 297.5251 -93.8679 -30.3946 29852.8251 -184.3858 -152.0361
ENERGY: 900000 2.6630 13.3841 5.2922 0.0000 -10519.1011 1438.5155 0.0000 0.0000 1760.1675 -7299.0788 303.0300 -9059.2463 -7304.0237 299.0601 177.1120 285.3825 29973.7421 -64.1561 -28.9766
ENERGY: 1200000 3.1693 14.8348 5.4084 0.0000 -10400.8438 1382.0597 0.0000 0.0000 1737.9879 -7257.3838 299.2115 -8995.3717 -7293.6020 299.4607 -165.9004 -134.6062 30180.6636 37.7505 81.7649
ENERGY: 1500000 4.1723 14.3866 7.5843 0.0000 -10527.8742 1411.8129 0.0000 0.0000 1741.4508 -7348.4673 299.8077 -9089.9181 -7305.0575 299.3296 -251.6841 -192.5043 29828.8052 49.0169 99.6809
TCL: Running FEP window   6: Lambda1 0.25   Lambda2 0.3    [dLambda 0.04999999999999999]
TCL: Setting parameter firsttimestep to 0
TCL: Setting parameter alchLambda to 0.25
Info: NONBONDED TABLE R-SQUARED SPACING: 0.0625
Info: NONBONDED TABLE SIZE: 705 POINTS
TCL: Setting parameter alchLambda2 to 0.3
Info: NONBONDED TABLE R-SQUARED SPACING: 0.0625
Info: NONBONDED TABLE SIZE: 705 POINTS
TCL: Running for 1500000 steps
ETITLE: TS BOND ANGLE DIHED IMPRP ELECT VDW BOUNDARY MISC KINETIC TOTAL TEMP POTENTIAL TOTALAVG TEMPAVG PRESSURE GPRESSURE VOLUME PRESSAVG GPRESSAVG
ENERGY: 0 4.1723 14.3866 7.5843 0.0000 -10527.8745 1413.4540 0.0000 0.0000 1740.5371 -7347.7401 299.6504 -9088.2773 -7347.7401 299.6504 -262.0089 -177.1639 29828.8052 -262.0089 -177.1639
ENERGY: 300000 4.1445 17.5382 6.5579 0.0000 -10308.5178 1276.9043 0.0000 0.0000 1730.0054 -7273.3675 297.8373 -9003.3729 -7287.6643 303.1956 -1391.5091 -1302.8432 30362.4704 -491.7110 -398.5378
ENERGY: 600000 1.2684 14.7912 5.9129 0.0000 -10614.9857 1412.2792 0.0000 0.0000 1762.5798 -7418.1543 303.4453 -9180.7341 -7313.4457 301.6684 -58.3528 21.3595 29316.9243 -166.0915 -68.3732
ENERGY: 900000 3.9272 18.6361 7.6902 0.0000 -10531.3608 1405.8643 0.0000 0.0000 1723.1632 -7372.0798 296.6593 -9095.2430 -7325.9206 300.6111 -151.9163 -92.6671 29937.5199 -75.4630 5.2845
ENERGY: 1200000 4.0613 13.6723 5.2278 0.0000 -10511.2906 1388.5605 0.0000 0.0000 1792.6581 -7307.1107 308.6235 -9099.7687 -7328.8795 300.5610 -481.2983 -443.4271 29933.1803 -133.6165 -64.6546
ENERGY: 1500000 1.3275 22.4406 8.1799 0.0000 -10351.8761 1347.1525 0.0000 0.0000 1737.6467 -7235.1290 299.1528 -8972.7757 -7321.7782 300.7590 -548.4912 -508.1283 30424.2390 -142.0493 -75.3875
TCL: Running FEP window   7: Lambda1 0.3    Lambda2 0.35   [dLambda 0.04999999999999999]
TCL: Setting parameter firsttimestep to 0
TCL: Setting parameter alchLambda to 0.3
Info: NONBONDED TABLE R-SQUARED SPACING: 0.0625
Info: NONBONDED TABLE SIZE: 705 POINTS
TCL: Setting parameter alchLambda2 to 0.35
Info: NONBONDED TABLE R-SQUARED SPACING: 0.0625
Info: NONBONDED TABLE SIZE: 705 POINTS
TCL: Running for 1500000 steps
ETITLE: TS BOND ANGLE DIHED IMPRP ELECT VDW BOUNDARY MISC KINETIC TOTAL TEMP POTENTIAL TOTALAVG TEMPAVG PRESSURE GPRESSURE VOLUME PRESSAVG GPRESSAVG
ENERGY: 0 1.3275 22.4406 8.1799 0.0000 -10351.8764 1350.2043 0.0000 0.0000 1736.7632 -7232.9610 299.0007 -8969.7242 -7232.9610 299.0007 -546.3618 -485.8692 30424.2390 -546.3618 -485.8692
ENERGY: 300000 2.6414 14.3737 5.5783 0.0000 -10602.2150 1408.5982 0.0000 0.0000 1768.2580 -7402.7654 304.4228 -9171.0234 -7309.2746 303.8427 -584.6339 -506.3152 30120.4566 -475.6589 -397.4479
ENERGY: 600000 6.2715 17.3664 6.5547 0.0000 -10386.1398 1327.7617 0.0000 0.0000 1720.6836 -7307.5019 296.2324 -9028.1855 -7299.7395 304.5623 -1099.0471 -1049.5460 30546.2680 -488.4201 -426.9567
ENERGY: 900000 1.9387 20.0039 6.0652 0.0000 -10454.0265 1426.6448 0.0000 0.0000 1736.9175 -7262.4563 299.0273 -8999.3738 -7305.9696 301.6372 50.9289 117.2354 30441.6242 -386.9746 -312.5262
ENERGY: 1200000 4.6305 13.5255 6.2344 0.0000 -10410.1180 1352.1329 0.0000 0.0000 1722.3110 -7311.2837 296.5126 -9033.5947 -7308.2159 301.3268 -520.8854 -481.7027 29826.5249 -285.9164 -217.5983
ENERGY: 1500000 5.2590 18.0787 5.5865 0.0000 -10434.8560 1430.3766 0.0000 0.0000 1726.6168 -7248.9383 297.2539 -8975.5551 -7298.5169 301.5953 41.5657 181.9394 30247.1469 -174.1864 -101.1175
TCL: Running FEP window   8: Lambda1 0.35   Lambda2 0.39999999999999997 [dLambda 0.04999999999999999]
TCL: Setting parameter firsttimestep to 0
TCL: Setting parameter alchLambda to 0.35
Info: NONBONDED TABLE R-SQUARED SPACING: 0.0625
Info: NONBONDED TABLE SIZE: 705 POINTS
TCL: Setting parameter alchLambda2 to 0.39999999999999997
Info: NONBONDED TABLE R-SQUARED SPACING: 0.0625
Info: NONBONDED TABLE SIZE: 705 POINTS
TCL: Running for 1500000 steps
ETITLE: TS BOND ANGLE DIHED IMPRP ELECT VDW BOUNDARY MISC KINETIC TOTAL TEMP POTENTIAL TOTALAVG TEMPAVG PRESSURE GPRESSURE VOLUME PRESSAVG GPRESSAVG
ENERGY: 0 5.2590 18.0787 5.5865 0.0000 -10434.8557 1430.2950 0.0000 0.0000 1725.7633 -7249.8731 297.1069 -8975.6364 -7249.8731 297.1069 107.3615 191.8603 30247.1469 107.3615 191.8603
ENERGY: 300000 3.8872 13.4243 7.7314 0.0000 -10401.3030 1363.3994 0.0000 0.0000 1793.8997 -7218.9610 308.8373 -9012.8607 -7261.9615 301.8513 -298.9924 -247.2191 29961.7756 82.9848 159.4654
ENERGY: 600000 0.3614 18.1840 6.0178 0.0000 -10326.3368 1283.7397 0.0000 0.0000 1723.1156 -7294.9183 296.6511 -9018.0338 -7295.2837 300.0731 -910.7591 -814.9347 30048.6882 -334.2153 -256.6479
ENERGY: 900000 5.9836 16.7849 4.9753 0.0000 -10546.4848 1411.2981 0.0000 0.0000 1710.2479 -7397.1949 294.4358 -9107.4428 -7309.0643 299.3629 -231.4780 -127.7502 29474.1543 -302.2596 -231.4479
ENERGY: 1200000 3.9521 17.4134 6.0002 0.0000 -10601.2365 1479.8389 0.0000 0.0000 1738.6869 -7355.3450 299.3319 -9094.0319 -7312.2124 298.5370 655.4632 682.1840 29623.2441 -271.8293 -202.6463
ENERGY: 1500000 2.9214 12.1669 4.1195 0.0000 -10543.8416 1484.2320 0.0000 0.0000 1736.6466 -7303.7553 298.9806 -9040.4019 -7308.6037 299.3873 613.2153 693.8598 29577.3246 -207.6386 -140.1918
TCL: Running FEP window   9: Lambda1 0.39999999999999997 Lambda2 0.44999999999999996 [dLambda 0.04999999999999999]
TCL: Setting parameter firsttimestep to 0
TCL: Setting parameter alchLambda to 0.39999999999999997
Info: NONBONDED TABLE R-SQUARED SPACING: 0.0625
Info: NONBONDED TABLE SIZE: 705 POINTS
TCL: Setting parameter alchLambda2 to 0.44999999999999996
Info: NONBONDED TABLE R-SQUARED SPACING: 0.0625
Info: NONBONDED TABLE SIZE: 705 POINTS
TCL: Running for 1500000 steps
ETITLE: TS BOND ANGLE DIHED IMPRP ELECT VDW BOUNDARY MISC KINETIC TOTAL TEMP POTENTIAL TOTALAVG TEMPAVG PRESSURE GPRESSURE VOLUME PRESSAVG GPRESSAVG
ENERGY: 0 2.9214 12.1669 4.1195 0.0000 -10543.8436 1483.5519 0.0000 0.0000 1735.7239 -7305.3600 298.8218 -9041.0839 -7305.3600 298.8218 616.9119 700.7419 29577.3246 616.9119 700.7419
ENERGY: 300000 1.5721 16.4142 6.0086 0.0000 -10541.8836 1474.1833 0.0000 0.0000 1708.4755 -7335.2299 294.1307 -9043.7054 -7301.2481 300.3093 502.6693 611.7737 29867.9390 267.6388 349.6730
ENERGY: 600000 2.1660 13.9874 5.4701 0.0000 -10482.5491 1431.2982 0.0000 0.0000 1765.9915 -7263.6360 304.0326 -9029.6275 -7293.0135 299.4253 271.6055 359.0364 29880.0582 199.9749 268.3023
ENERGY: 900000 4.4895 17.1392 6.9620 0.0000 -10617.8773 1442.9486 0.0000 0.0000 1700.1139 -7446.2240 292.6911 -9146.3379 -7321.8573 297.8548 45.4580 96.1803 29504.1603 175.9933 228.1431
ENERGY: 1200000 3.2592 19.0883 3.9894 0.0000 -10505.9842 1401.3386 0.0000 0.0000 1755.7062 -7322.6025 302.2619 -9078.3088 -7327.3036 298.6674 -113.5887 -28.1919 30031.2618 151.2204 202.2896
ENERGY: 1500000 2.4672 10.3135 6.7027 0.0000 -10529.1906 1399.0715 0.0000 0.0000 1693.9978 -7416.6379 291.6382 -9110.6357 -7334.3937 297.8091 -145.4237 -113.1309 29673.3380 83.5761 137.2235
TCL: Running FEP window  10: Lambda1 0.44999999999999996 Lambda2 0.49999999999999994 [dLambda 0.04999999999999999]
TCL: Setting parameter firsttimestep to 0
TCL: Setting parameter alchLambda to 0.44999999999999996
Info: NONBONDED TABLE R-SQUARED SPACING: 0.0625
Info: NONBONDED TABLE SIZE: 705 POINTS
TCL: Setting parameter alchLambda2 to 0.49999999999999994
Info: NONBONDED TABLE R-SQUARED SPACING: 0.0625
Info: NONBONDED TABLE SIZE: 705 POINTS
TCL: Running for 1500000 steps
ETITLE: TS BOND ANGLE DIHED IMPRP ELECT VDW BOUNDARY MISC KINETIC TOTAL TEMP POTENTIAL TOTALAVG TEMPAVG PRESSURE GPRESSURE VOLUME PRESSAVG GPRESSAVG
ENERGY: 0 2.4672 10.3135 6.7027 0.0000 -10529.1908 1398.8789 0.0000 0.0000 1693.1549 -7417.6736 291.4931 -9110.8285 -7417.6736 291.4931 -183.1386 -102.5342 29673.3380 -183.1386 -102.5342
ENERGY: 300000 3.6189 12.4396 5.2310 0.0000 -10531.6988 1412.2326 0.0000 0.0000 1734.9467 -7363.2299 298.6880 -9098.1766 -7359.0404 298.4792 -232.6819 -200.5371 30313.1425 -97.8773 -54.0287
ENERGY: 600000 3.7090 17.7159 6.4305 0.0000 -10491.9156 1423.4064 0.0000 0.0000 1717.0487 -7323.6051 295.6066 -9040.6539 -7348.6092 298.7276 4.3078 81.9354 29871.7898 -36.5021 19.8136
ENERGY: 900000 2.5106 16.9656 6.3264 0.0000 -10564.2531 1445.5276 0.0000 0.0000 1683.8596 -7409.0633 289.8928 -9092.9229 -7360.4678 297.6128 -81.0570 -27.1319 30367.7497 31.9863 94.3828
ENERGY: 1200000 2.5474 15.8228 6.7344 0.0000 -10505.9509 1429.0808 0.0000 0.0000 1700.5447 -7351.2207 292.7653 -9051.7654 -7345.3142 298.5287 158.3671 193.0631 29877.7418 130.2135 192.5911
ENERGY: 1500000 3.2831 14.9577 6.0189 0.0000 -10505.7418 1331.3870 0.0000 0.0000 1762.6901 -7387.4050 303.4643 -9150.0952 -7345.3069 299.1646 -928.7607 -923.5444 29956.2808 102.0149 156.8911
TCL: Running FEP window  11: Lambda1 0.49999999999999994 Lambda2 0.5499999999999999 [dLambda 0.04999999999999999]
TCL: Setting parameter firsttimestep to 0
TCL: Setting parameter alchLambda to 0.49999999999999994
Info: NONBONDED TABLE R-SQUARED SPACING: 0.0625
Info: NONBONDED TABLE SIZE: 705 POINTS
TCL: Setting parameter alchLambda2 to 0.5499999999999999
Info: NONBONDED TABLE R-SQUARED SPACING: 0.0625
Info: NONBONDED TABLE SIZE: 705 POINTS
TCL: Running for 1500000 steps
ETITLE: TS BOND ANGLE DIHED IMPRP ELECT VDW BOUNDARY MISC KINETIC TOTAL TEMP POTENTIAL TOTALAVG TEMPAVG PRESSURE GPRESSURE VOLUME PRESSAVG GPRESSAVG
ENERGY: 0 3.2831 14.9577 6.0189 0.0000 -10505.7417 1331.4035 0.0000 0.0000 1761.7954 -7388.2831 303.3102 -9150.0785 -7388.2831 303.3102 -1010.7278 -912.7154 29956.2808 -1010.7278 -912.7154
ENERGY: 300000 2.3886 15.2730 8.7012 0.0000 -10480.4633 1452.0684 0.0000 0.0000 1767.7194 -7234.3127 304.3301 -9002.0321 -7327.5769 302.1103 528.6626 611.6678 29912.1299 -186.0536 -100.9409
ENERGY: 600000 3.1432 15.9366 4.5979 0.0000 -10532.2354 1404.8614 0.0000 0.0000 1743.1545 -7360.5418 300.1010 -9103.6963 -7336.5440 299.4411 -406.9525 -354.1608 30508.9742 -232.6813 -162.4132
ENERGY: 900000 2.3794 9.5692 8.5632 0.0000 -10415.2703 1344.6599 0.0000 0.0000 1756.3279 -7293.7708 302.3689 -9050.0987 -7326.8564 299.6004 -730.1227 -675.2279 30581.3477 -307.8723 -236.6886
ENERGY: 1200000 2.5107 14.9824 6.9029 0.0000 -10505.3194 1445.0588 0.0000 0.0000 1729.4402 -7306.4245 297.7400 -9035.8647 -7317.0989 299.5771 448.9126 443.4240 30353.6661 -166.7076 -102.1713
ENERGY: 1500000 1.6424 13.1394 5.0437 0.0000 -10528.8021 1473.6347 0.0000 0.0000 1778.4876 -7256.8543 306.1839 -9035.3419 -7314.1610 299.9053 666.3430 709.0576 29999.3451 -77.5696 -13.7928
TCL: Running FEP window  12: Lambda1 0.5499999999999999 Lambda2 0.6    [dLambda 0.050000000000000044]
TCL: Setting parameter firsttimestep to 0
TCL: Setting parameter alchLambda to 0.5499999999999999
Info: NONBONDED TABLE R-SQUARED SPACING: 0.0625
Info: NONBONDED TABLE SIZE: 705 POINTS
TCL: Setting parameter alchLambda2 to 0.6
Info: NONBONDED TABLE R-SQUARED SPACING: 0.0625
Info: NONBONDED TABLE SIZE: 705 POINTS
TCL: Running for 1500000 steps
ETITLE: TS BOND ANGLE DIHED IMPRP ELECT VDW BOUNDARY MISC KINETIC TOTAL TEMP POTENTIAL TOTALAVG TEMPAVG PRESSURE GPRESSURE VOLUME PRESSAVG GPRESSAVG
ENERGY: 0 1.6424 13.1394 5.0437 0.0000 -10528.7973 1474.0121 0.0000 0.0000 1777.6118 -7257.3479 306.0332 -9034.9597 -7257.3479 306.0332 641.2482 727.6390 29999.3451 641.2482 727.6390
ENERGY: 300000 2.0339 20.3233 7.6197 0.0000 -10505.5450 1454.2725 0.0000 0.0000 1783.9080 -7237.3876 307.1171 -9021.2956 -7259.3981 303.2719 427.3604 436.0125 30166.1100 67.4832 118.8942
ENERGY: 600000 4.6772 21.6391 5.6311 0.0000 -10456.1108 1425.2283 0.0000 0.0000 1737.5165 -7261.4187 299.1304 -8998.9352 -7273.7702 302.3887 -50.9113 43.3994 30684.8659 -87.1762 -23.5971
ENERGY: 900000 2.3272 18.1026 5.0952 0.0000 -10296.2898 1307.5411 0.0000 0.0000 1717.6524 -7245.5713 295.7106 -8963.2237 -7262.7291 302.0678 -608.1674 -495.8838 29915.1637 -240.9878 -176.9440
ENERGY: 1200000 1.8685 20.8523 5.4685 0.0000 -10401.5003 1373.7446 0.0000 0.0000 1754.9578 -7244.6085 302.1331 -8999.5663 -7261.0264 302.2421 18.5860 57.1982 29916.0068 -261.0364 -194.4126
ENERGY: 1500000 1.5777 11.4545 6.4945 0.0000 -10647.3654 1456.4612 0.0000 0.0000 1719.2311 -7452.1464 295.9824 -9171.3776 -7280.1473 301.6097 178.6059 197.3422 29917.0728 -122.1148 -63.4701
TCL: Running FEP window  13: Lambda1 0.6    Lambda2 0.65   [dLambda 0.050000000000000044]
TCL: Setting parameter firsttimestep to 0
TCL: Setting parameter alchLambda to 0.6
Info: NONBONDED TABLE R-SQUARED SPACING: 0.0625
Info: NONBONDED TABLE SIZE: 705 POINTS
TCL: Setting parameter alchLambda2 to 0.65
Info: NONBONDED TABLE R-SQUARED SPACING: 0.0625
Info: NONBONDED TABLE SIZE: 705 POINTS
TCL: Running for 1500000 steps
ETITLE: TS BOND ANGLE DIHED IMPRP ELECT VDW BOUNDARY MISC KINETIC TOTAL TEMP POTENTIAL TOTALAVG TEMPAVG PRESSURE GPRESSURE VOLUME PRESSAVG GPRESSAVG
ENERGY: 0 1.5777 11.4545 6.4945 0.0000 -10647.3322 1457.2274 0.0000 0.0000 1718.3435 -7452.2346 295.8295 -9170.5780 -7452.2346 295.8295 147.4288 219.8489 29917.0728 147.4288 219.8489
ENERGY: 300000 2.7691 14.6862 5.7807 0.0000 -10418.0196 1368.1841 0.0000 0.0000 1717.5100 -7309.0896 295.6861 -9026.5996 -7360.3840 297.0204 -244.8821 -201.7888 30028.8837 -302.4459 -227.4765
ENERGY: 600000 0.8536 15.9275 5.8960 0.0000 -10549.2737 1437.7928 0.0000 0.0000 1773.4140 -7315.3898 305.3105 -9088.8038 -7338.8012 300.4564 416.2001 496.5925 29713.4669 -222.2806 -149.3840
ENERGY: 900000 1.6211 13.7175 5.2921 0.0000 -10405.6967 1354.4357 0.0000 0.0000 1717.6512 -7312.9792 295.7104 -9030.6304 -7335.5081 300.2164 -399.0485 -294.9767 30054.9989 -202.6755 -131.9437
ENERGY: 1200000 1.6140 19.3008 4.1349 0.0000 -10449.2480 1377.8307 0.0000 0.0000 1774.7614 -7271.6062 305.5424 -9046.3676 -7328.9007 300.8668 -252.7561 -193.6167 29961.7199 -117.0039 -47.0627
ENERGY: 1500000 6.2143 12.6023 4.4369 0.0000 -10476.8068 1395.3682 0.0000 0.0000 1687.7569 -7370.4282 290.5638 -9058.1851 -7328.4915 300.8688 -370.7305 -218.9739 30090.9513 -90.3563 -17.8016
TCL: Running FEP window  14: Lambda1 0.65   Lambda2 0.7000000000000001 [dLambda 0.050000000000000044]
TCL: Setting parameter firsttimestep to 0
TCL: Setting parameter alchLambda to 0.65
Info: NONBONDED TABLE R-SQUARED SPACING: 0.0625
Info: NONBONDED TABLE SIZE: 705 POINTS
TCL: Setting parameter alchLambda2 to 0.7000000000000001
Info: NONBONDED TABLE R-SQUARED SPACING: 0.0625
Info: NONBONDED TABLE SIZE: 705 POINTS
TCL: Running for 1500000 steps
ETITLE: TS BOND ANGLE DIHED IMPRP ELECT VDW BOUNDARY MISC KINETIC TOTAL TEMP POTENTIAL TOTALAVG TEMPAVG PRESSURE GPRESSURE VOLUME PRESSAVG GPRESSAVG
ENERGY: 0 6.2144 12.6023 4.4369 0.0000 -10476.8266 1396.3263 0.0000 0.0000 1686.9285 -7370.3182 290.4212 -9057.2467 -7370.3182 290.4212 -275.3878 -191.7264 30090.9513 -275.3878 -191.7264
ENERGY: 300000 3.4921 19.9635 6.5803 0.0000 -10463.0006 1416.5802 0.0000 0.0000 1754.8551 -7261.5293 302.1154 -9016.3844 -7370.5762 295.8819 221.3895 321.5022 29916.1093 -189.0951 -148.3329
ENERGY: 600000 3.3994 15.6871 6.2434 0.0000 -10548.3324 1475.2051 0.0000 0.0000 1762.5194 -7285.2781 303.4349 -9047.7975 -7348.9206 298.5338 141.6453 256.2529 30485.8367 -215.9649 -152.7343
ENERGY: 900000 4.4798 13.7984 4.4447 0.0000 -10430.9249 1389.3375 0.0000 0.0000 1731.4562 -7287.4083 298.0870 -9018.8645 -7327.2775 299.3893 241.2503 287.6113 29589.6349 -169.7210 -107.3706
ENERGY: 1200000 3.3923 12.2254 4.1241 0.0000 -10583.6669 1498.1409 0.0000 0.0000 1790.1214 -7275.6628 308.1868 -9065.7843 -7328.0150 300.1080 748.1466 780.6533 29630.8938 -90.8179 -29.6291
ENERGY: 1500000 2.9662 12.1171 5.0387 0.0000 -10589.8597 1415.8719 0.0000 0.0000 1717.1208 -7436.7450 295.6191 -9153.8658 -7326.7929 300.2273 -387.7586 -261.0383 29795.2688 -153.2442 -85.7338
TCL: Running FEP window  15: Lambda1 0.7000000000000001 Lambda2 0.7500000000000001 [dLambda 0.050000000000000044]
TCL: Setting parameter firsttimestep to 0
TCL: Setting parameter alchLambda to 0.7000000000000001
Info: NONBONDED TABLE R-SQUARED SPACING: 0.0625
Info: NONBONDED TABLE SIZE: 705 POINTS
TCL: Setting parameter alchLambda2 to 0.7500000000000001
Info: NONBONDED TABLE R-SQUARED SPACING: 0.0625
Info: NONBONDED TABLE SIZE: 705 POINTS
TCL: Running for 1500000 steps
ETITLE: TS BOND ANGLE DIHED IMPRP ELECT VDW BOUNDARY MISC KINETIC TOTAL TEMP POTENTIAL TOTALAVG TEMPAVG PRESSURE GPRESSURE VOLUME PRESSAVG GPRESSAVG
ENERGY: 0 2.9662 12.1171 5.0387 0.0000 -10589.8365 1415.7609 0.0000 0.0000 1716.2752 -7437.6783 295.4735 -9153.9535 -7437.6783 295.4735 -337.8955 -249.0159 29795.2688 -337.8955 -249.0159
ENERGY: 300000 3.5090 16.9557 5.1766 0.0000 -10551.3780 1399.8113 0.0000 0.0000 1738.7076 -7387.2178 299.3354 -9125.9254 -7375.3189 296.6042 -288.4036 -234.1525 29952.0028 -223.7189 -157.4697
ENERGY: 600000 3.2692 16.6919 5.3113 0.0000 -10368.3480 1303.3262 0.0000 0.0000 1762.6621 -7277.0873 303.4594 -9039.7494 -7327.2255 298.6037 -1002.5124 -901.3335 30155.9992 -113.1535 -50.1797
ENERGY: 900000 1.5785 18.1412 5.7140 0.0000 -10555.5877 1460.3701 0.0000 0.0000 1755.6955 -7314.0884 302.2601 -9069.7839 -7342.7639 297.9389 573.7797 632.0907 29603.3427 -28.8786 33.7336
ENERGY: 1200000 4.0902 14.4184 5.8517 0.0000 -10485.1603 1361.7817 0.0000 0.0000 1709.3563 -7389.6620 294.2823 -9099.0183 -7329.0862 299.3943 -540.5327 -473.6841 29889.9128 4.1156 57.3555
ENERGY: 1500000 3.9914 14.5215 5.4240 0.0000 -10680.8293 1497.1705 0.0000 0.0000 1781.9210 -7377.8008 306.7750 -9159.7219 -7333.5698 300.9807 443.0968 582.0220 29658.2094 -37.3196 25.1736
TCL: Running FEP window  16: Lambda1 0.7500000000000001 Lambda2 0.8000000000000002 [dLambda 0.050000000000000044]
TCL: Setting parameter firsttimestep to 0
TCL: Setting parameter alchLambda to 0.7500000000000001
Info: NONBONDED TABLE R-SQUARED SPACING: 0.0625
Info: NONBONDED TABLE SIZE: 705 POINTS
TCL: Setting parameter alchLambda2 to 0.8000000000000002
Info: NONBONDED TABLE R-SQUARED SPACING: 0.0625
Info: NONBONDED TABLE SIZE: 705 POINTS
TCL: Running for 1500000 steps
ETITLE: TS BOND ANGLE DIHED IMPRP ELECT VDW BOUNDARY MISC KINETIC TOTAL TEMP POTENTIAL TOTALAVG TEMPAVG PRESSURE GPRESSURE VOLUME PRESSAVG GPRESSAVG
ENERGY: 0 3.9914 14.5215 5.4240 0.0000 -10680.8661 1498.0390 0.0000 0.0000 1781.0165 -7377.8736 306.6193 -9158.8901 -7377.8736 306.6193 527.1500 609.0249 29658.2094 527.1500 609.0249
ENERGY: 300000 3.0264 15.1349 5.2521 0.0000 -10488.7523 1413.4923 0.0000 0.0000 1759.5774 -7292.2692 302.9284 -9051.8466 -7317.9055 304.6290 97.2393 174.7156 29699.4069 158.9953 217.5906
ENERGY: 600000 4.6002 12.7852 8.2121 0.0000 -10523.7652 1421.0758 0.0000 0.0000 1771.6014 -7305.4905 304.9984 -9077.0918 -7330.5157 301.3962 -38.3478 -11.9244 30056.6401 73.7293 127.2054
ENERGY: 900000 2.2559 13.9272 5.6221 0.0000 -10555.2760 1413.1900 0.0000 0.0000 1691.0111 -7429.2697 291.1240 -9120.2808 -7341.5690 300.6585 -13.3037 32.9221 29679.0668 159.4885 207.0730
ENERGY: 1200000 2.7739 16.6758 4.6639 0.0000 -10464.6535 1406.4685 0.0000 0.0000 1718.9682 -7315.1031 295.9371 -9034.0713 -7340.1694 299.5602 -114.0976 -81.2636 30595.6443 128.8148 180.9061
ENERGY: 1500000 3.9618 13.4437 4.6359 0.0000 -10516.3078 1441.2217 0.0000 0.0000 1835.3425 -7217.7021 315.9721 -9053.0447 -7327.5832 301.5649 415.6540 504.0226 29893.1614 131.9289 188.4352
TCL: Running FEP window  17: Lambda1 0.8000000000000002 Lambda2 0.8500000000000002 [dLambda 0.050000000000000044]
TCL: Setting parameter firsttimestep to 0
TCL: Setting parameter alchLambda to 0.8000000000000002
Info: NONBONDED TABLE R-SQUARED SPACING: 0.0625
Info: NONBONDED TABLE SIZE: 705 POINTS
TCL: Setting parameter alchLambda2 to 0.8500000000000002
Info: NONBONDED TABLE R-SQUARED SPACING: 0.0625
Info: NONBONDED TABLE SIZE: 705 POINTS
TCL: Running for 1500000 steps
ETITLE: TS BOND ANGLE DIHED IMPRP ELECT VDW BOUNDARY MISC KINETIC TOTAL TEMP POTENTIAL TOTALAVG TEMPAVG PRESSURE GPRESSURE VOLUME PRESSAVG GPRESSAVG
ENERGY: 0 3.9618 13.4437 4.6359 0.0000 -10516.2827 1440.4491 0.0000 0.0000 1834.4941 -7219.2981 315.8260 -9053.7922 -7219.2981 315.8260 418.0841 506.7903 29893.1614 418.0841 506.7903
ENERGY: 300000 7.6856 11.3022 4.6236 0.0000 -10496.9904 1414.4813 0.0000 0.0000 1765.2422 -7293.6555 303.9036 -9058.8976 -7305.0739 306.3510 -75.3308 -41.3985 30185.8038 19.5725 75.9912
ENERGY: 600000 2.7497 19.5948 5.9519 0.0000 -10665.3315 1512.5497 0.0000 0.0000 1772.5088 -7351.9765 305.1546 -9124.4853 -7313.6368 304.9172 1023.0234 1072.4239 29260.6831 237.2008 287.5101
ENERGY: 900000 1.1232 10.4000 7.1917 0.0000 -10581.2474 1494.6371 0.0000 0.0000 1753.5054 -7314.3900 301.8830 -9067.8954 -7306.1335 304.4932 1059.6637 1025.7794 29492.3027 257.6770 295.9707
ENERGY: 1200000 4.9161 12.1805 3.9063 0.0000 -10632.5293 1473.6148 0.0000 0.0000 1686.3034 -7451.6083 290.3135 -9137.9117 -7325.6401 302.6662 85.1539 199.6824 30019.0553 245.4076 294.6133
ENERGY: 1500000 2.4651 17.7709 5.5257 0.0000 -10449.1174 1387.9974 0.0000 0.0000 1773.6587 -7261.6996 305.3526 -9035.3583 -7315.0798 303.0095 -88.6055 -75.3104 29962.2605 208.9280 260.3034
TCL: Running FEP window  18: Lambda1 0.8500000000000002 Lambda2 0.9000000000000002 [dLambda 0.050000000000000044]
TCL: Setting parameter firsttimestep to 0
TCL: Setting parameter alchLambda to 0.8500000000000002
Info: NONBONDED TABLE R-SQUARED SPACING: 0.0625
Info: NONBONDED TABLE SIZE: 705 POINTS
TCL: Setting parameter alchLambda2 to 0.9000000000000002
Info: NONBONDED TABLE R-SQUARED SPACING: 0.0625
Info: NONBONDED TABLE SIZE: 705 POINTS
TCL: Running for 1500000 steps
ETITLE: TS BOND ANGLE DIHED IMPRP ELECT VDW BOUNDARY MISC KINETIC TOTAL TEMP POTENTIAL TOTALAVG TEMPAVG PRESSURE GPRESSURE VOLUME PRESSAVG GPRESSAVG
ENERGY: 0 2.4651 17.7709 5.5257 0.0000 -10449.0889 1388.2549 0.0000 0.0000 1772.7831 -7262.2892 305.2019 -9035.0723 -7262.2892 305.2019 -137.4637 -52.9564 29962.2605 -137.4637 -52.9564
ENERGY: 300000 3.9145 14.8506 5.9319 0.0000 -10604.3612 1465.9115 0.0000 0.0000 1780.7256 -7333.0271 306.5692 -9113.7527 -7302.0673 304.2340 133.3806 208.8500 29878.5643 -194.8503 -123.3617
ENERGY: 600000 3.6436 10.6913 6.3319 0.0000 -10624.9891 1479.2671 0.0000 0.0000 1751.7091 -7373.3461 301.5738 -9125.0552 -7306.6641 304.2454 538.1504 652.3135 29580.4413 46.5554 130.3041
ENERGY: 900000 3.9470 15.1758 5.0513 0.0000 -10588.3596 1532.2007 0.0000 0.0000 1782.7846 -7249.2001 306.9237 -9031.9847 -7290.8068 304.2449 925.8157 983.8857 30142.1419 138.0208 216.3224
ENERGY: 1200000 3.8361 20.0817 4.4861 0.0000 -10353.6001 1244.5492 0.0000 0.0000 1772.0406 -7308.6063 305.0740 -9080.6470 -7303.8827 302.4032 -1394.8667 -1290.4730 30004.2535 -30.0104 46.0901
ENERGY: 1500000 3.5728 14.4590 9.9218 0.0000 -10470.5395 1405.9008 0.0000 0.0000 1775.4989 -7261.1862 305.6694 -9036.6851 -7306.3836 301.4232 -162.5903 -76.6984 30394.8943 -100.4320 -23.4955
TCL: Running FEP window  19: Lambda1 0.9000000000000002 Lambda2 0.9500000000000003 [dLambda 0.050000000000000044]
TCL: Setting parameter firsttimestep to 0
TCL: Setting parameter alchLambda to 0.9000000000000002
Info: NONBONDED TABLE R-SQUARED SPACING: 0.0625
Info: NONBONDED TABLE SIZE: 705 POINTS
TCL: Setting parameter alchLambda2 to 0.9500000000000003
Info: NONBONDED TABLE R-SQUARED SPACING: 0.0625
Info: NONBONDED TABLE SIZE: 705 POINTS
TCL: Running for 1500000 steps
ETITLE: TS BOND ANGLE DIHED IMPRP ELECT VDW BOUNDARY MISC KINETIC TOTAL TEMP POTENTIAL TOTALAVG TEMPAVG PRESSURE GPRESSURE VOLUME PRESSAVG GPRESSAVG
ENERGY: 0 3.5728 14.4590 9.9218 0.0000 -10470.5503 1405.9262 0.0000 0.0000 1774.6562 -7262.0143 305.5243 -9036.6705 -7262.0143 305.5243 -150.6095 -62.9364 30394.8943 -150.6095 -62.9364
ENERGY: 300000 3.7817 14.6542 6.3013 0.0000 -10560.8179 1472.4505 0.0000 0.0000 1708.5374 -7355.0929 294.1413 -9063.6303 -7331.5375 303.1270 -30.9971 108.0465 30676.2461 -261.1107 -159.3951
ENERGY: 600000 3.5233 18.3184 5.1859 0.0000 -10531.2972 1439.6798 0.0000 0.0000 1741.2772 -7323.3125 299.7778 -9064.5898 -7350.6513 303.1805 213.7980 308.7904 30191.5091 -118.4181 -42.1136
ENERGY: 900000 1.6112 19.7020 6.6422 0.0000 -10465.1615 1381.3304 0.0000 0.0000 1753.9832 -7301.8925 301.9653 -9055.8757 -7342.2445 301.9856 -22.9611 81.0189 29890.3514 -178.8468 -100.6471
ENERGY: 1200000 2.8553 14.6899 5.6625 0.0000 -10465.7271 1359.5469 0.0000 0.0000 1758.9882 -7323.9843 302.8269 -9082.9725 -7333.1650 301.4245 -546.7482 -494.3382 30333.5180 -151.1098 -77.6500
ENERGY: 1500000 3.2931 21.7529 5.9894 0.0000 -10558.2181 1494.7706 0.0000 0.0000 1718.0660 -7314.3461 295.7818 -9032.4121 -7334.9523 300.3166 613.5476 766.4007 29821.2276 -186.0083 -107.6238
TCL: Running FEP window  20: Lambda1 0.9500000000000003 Lambda2 1.0    [dLambda 0.04999999999999971]
TCL: Setting parameter firsttimestep to 0
TCL: Setting parameter alchLambda to 0.9500000000000003
Info: NONBONDED TABLE R-SQUARED SPACING: 0.0625
Info: NONBONDED TABLE SIZE: 705 POINTS
TCL: Setting parameter alchLambda2 to 1.0
Info: NONBONDED TABLE R-SQUARED SPACING: 0.0625
Info: NONBONDED TABLE SIZE: 705 POINTS
TCL: Running for 1500000 steps
ETITLE: TS BOND ANGLE DIHED IMPRP ELECT VDW BOUNDARY MISC KINETIC TOTAL TEMP POTENTIAL TOTALAVG TEMPAVG PRESSURE GPRESSURE VOLUME PRESSAVG GPRESSAVG
ENERGY: 0 3.2931 21.7529 5.9894 0.0000 -10558.2237 1496.5853 0.0000 0.0000 1717.2297 -7313.3734 295.6378 -9030.6031 -7313.3734 295.6378 729.0714 806.2519 29821.2276 729.0714 806.2519
ENERGY: 300000 3.6602 11.3009 5.4108 0.0000 -10388.4200 1364.2295 0.0000 0.0000 1704.9185 -7298.9002 293.5183 -9003.8187 -7302.2308 294.3375 -340.2821 -291.1458 30398.0827 151.5894 230.8407
ENERGY: 600000 5.4731 16.3997 7.1108 0.0000 -10507.0829 1421.7882 0.0000 0.0000 1755.5481 -7300.7630 302.2347 -9056.3111 -7319.2425 296.4316 -31.2259 16.8583 30023.0247 42.4375 105.6519
ENERGY: 900000 2.1438 24.1163 5.5330 0.0000 -10384.1379 1315.7106 0.0000 0.0000 1752.6578 -7283.9765 301.7371 -9036.6343 -7311.0184 298.0794 -628.2932 -567.8744 30159.8849 -21.4577 42.6771
ENERGY: 1200000 3.6203 16.2861 4.9790 0.0000 -10564.5052 1404.4378 0.0000 0.0000 1741.8766 -7393.3055 299.8810 -9135.1821 -7331.5607 298.3959 -302.1603 -188.2845 30013.6808 -76.1338 -13.3067
ENERGY: 1500000 3.0557 13.9124 8.4248 0.0000 -10575.8631 1480.4023 0.0000 0.0000 1774.4161 -7295.6518 305.4830 -9070.0679 -7329.2932 298.8798 517.2957 567.3703 30199.8940 19.1864 79.3727
TCL: Exiting due to exit command.
