Info: SIMULATION PARAMETERS:
Info: TIMESTEP               2
Info: NUMBER OF STEPS        0
Info: STEPS PER CYCLE        10
Info: PERIODIC CELL BASIS 1  34.2421 0 0
Info: PERIODIC CELL BASIS 2  0 30.188 0
Info: PERIODIC CELL BASIS 3  0 0 29.2116
Info: PERIODIC CELL CENTER   0 0 0
Info: WRAPPING WATERS AROUND PERIODIC BOUNDARIES ON OUTPUT.
Info: WRAPPING ALL CLUSTERS AROUND PERIODIC BOUNDARIES ON OUTPUT.
Info: FIRST LDB TIMESTEP     50
Info: LAST LDB TIMESTEP     -1
Info: HOM BACKGROUND SCALING 1
Info: PME BACKGROUND SCALING 1
Info: MIN ATOMS PER PATCH    40
Info: EMPTY PATCH LOAD       40 ATOMS
Info: VELOCITY FILE          mobley_5880265_equil.vel
Info: CENTER OF MASS MOVING INITIALLY? NO
Info: DIELECTRIC             1
Info: EXCLUDE                SCALED ONE-FOUR
Info: 1-4 ELECTROSTATICS SCALED BY 0.833333
Info: MODIFIED 1-4 VDW PARAMETERS WILL BE USED
Info: DCD FILENAME           mobley_5880265_prod.dcd
Info: DCD FREQUENCY          100000
Info: DCD FIRST STEP         100000
Info: DCD FILE WILL CONTAIN UNIT CELL DATA
Info: XST FILENAME           mobley_5880265_prod.xst
Info: XST FREQUENCY          100000
Info: NO VELOCITY DCD OUTPUT
Info: NO FORCE DCD OUTPUT
Info: OUTPUT FILENAME        mobley_5880265_prod
Info: BINARY OUTPUT FILES WILL BE USED
Info: RESTART FILENAME       mobley_5880265_prod.restart
Info: RESTART FREQUENCY      100000
Info: BINARY RESTART FILES WILL BE USED
Info: CUTOFF                 9
Info: PAIRLIST DISTANCE      11
Info: PAIRLIST SHRINK RATE   0.01
Info: PAIRLIST GROW RATE     0.01
Info: PAIRLIST TRIGGER       0.3
Info: PAIRLISTS PER CYCLE    2
Info: PAIRLISTS ENABLED
Info: MARGIN                 2
Info: HYDROGEN GROUP CUTOFF  2.5
Info: PATCH DIMENSION        15.5
Info: ENERGY OUTPUT STEPS    100000
Info: ENERGY EVALUATION STEPS    100000
Info: OUTPUT ENERGY PRECISION 4
Info: CROSSTERM ENERGY INCLUDED IN DIHEDRAL
Info: TIMING OUTPUT STEPS    1000000
Info: PRESSURE OUTPUT STEPS  100000
Info: ALCHEMICAL FEP ON
Info: FEP CURRENT LAMBDA VALUE     0
Info: FEP COMPARISON LAMBDA VALUE  0.05
Info: FEP INTRA-ALCHEMICAL NON-BONDED INTERACTIONS WILL BE RETAINED
Info: FEP INTRA-ALCHEMICAL BONDED INTERACTIONS WILL BE RETAINED
Info: FEP VDW SHIFTING COEFFICIENT 5
Info: FEP ELEC. ACTIVE FOR ANNIHILATED PARTICLES BETWEEN LAMBDA = 0 AND LAMBDA = 0.5
Info: FEP ELEC. ACTIVE FOR EXNIHILATED PARTICLES BETWEEN LAMBDA = 0.5 AND LAMBDA = 1
Info: FEP VDW ACTIVE FOR ANNIHILATED PARTICLES BETWEEN LAMBDA = 0 AND LAMBDA = 1
Info: FEP VDW ACTIVE FOR EXNIHILATED PARTICLES BETWEEN LAMBDA = 0 AND LAMBDA = 1
Info: FEP BOND ACTIVE FOR ANNIHILATED PARTICLES BETWEEN LAMBDA = 1 AND LAMBDA = 1
Info: FEP BOND ACTIVE FOR EXNIHILATED PARTICLES BETWEEN LAMBDA = 0 AND LAMBDA = 0
Info: LANGEVIN DYNAMICS ACTIVE
Info: LANGEVIN TEMPERATURE   300
Info: LANGEVIN USING BBK INTEGRATOR
Info: LANGEVIN DAMPING COEFFICIENT IS 1 INVERSE PS
Info: LANGEVIN DYNAMICS APPLIED TO HYDROGENS
Info: LANGEVIN PISTON PRESSURE CONTROL ACTIVE
Info:        TARGET PRESSURE IS 1.01325 BAR
Info:     OSCILLATION PERIOD IS 50 FS
Info:             DECAY TIME IS 25 FS
Info:     PISTON TEMPERATURE IS 300 K
Info:       PRESSURE CONTROL IS GROUP-BASED
Info:    INITIAL STRAIN RATE IS 0.000318813 0.000318813 0.000318813
Info:       CELL FLUCTUATION IS ISOTROPIC
Info: PARTICLE MESH EWALD (PME) ACTIVE
Info: PME TOLERANCE               1e-06
Info: PME EWALD COEFFICIENT       0.348832
Info: PME INTERPOLATION ORDER     4
Info: PME GRID DIMENSIONS         36 32 32
Info: PME MAXIMUM GRID SPACING    1
Info: PME CALCULATION WILL BE PERFORMED ON GPU
Info: FULL ELECTROSTATIC EVALUATION FREQUENCY      2
Info: USING VERLET I (r-RESPA) MTS SCHEME.
Info: C1 SPLITTING OF LONG RANGE ELECTROSTATICS
Info: PLACING ATOMS IN PATCHES BY HYDROGEN GROUPS
Info: RIGID BONDS TO HYDROGEN : ALL
Info:         ERROR TOLERANCE : 1e-08
Info:          MAX ITERATIONS : 100
Info: RIGID WATER USING SETTLE ALGORITHM
Info: RANDOM NUMBER SEED     1744005150
Info: USE HYDROGEN BONDS?    NO
Info: Using AMBER format force field!
Info: AMBER PARM FILE        mobley_5880265.prmtop
Info: COORDINATE PDB         mobley_5880265.pdb
Info: Exclusions will be read from PARM file!
Info: SCNB (VDW SCALING)     2
Info: USING ARITHMETIC MEAN TO COMBINE L-J SIGMA PARAMETERS
Info: BINARY COORDINATES     mobley_5880265_equil.coor
Info: SUMMARY OF PARAMETERS:
Info: 8 BONDS
Info: 11 ANGLES
Info:   11 HARMONIC
Info:   0 COSINE-BASED
Info: 14 DIHEDRAL
Info: 0 IMPROPER
Info: 0 CROSSTERM
Info: 0 VDW
Info: 28 VDW_PAIRS
Info: 0 NBTHOLE_PAIRS
Info: To read alchdata from file: mobley_5880265.pdb
Info: To read alchflag data from column: 5
Info: STRUCTURE SUMMARY:
Info: 2944 ATOMS
Info: 2943 BONDS
Info: 38 ANGLES
Info: 57 DIHEDRALS
Info: 0 IMPROPERS
Info: 0 CROSSTERMS
Info: 3026 EXCLUSIONS
Info: 2936 RIGID BONDS
Info: ALCH: 0 ATOMS TO DISAPPEAR IN FINAL STATE
Info: ALCH: 22 ATOMS TO APPEAR IN FINAL STATE
Info: 5896 DEGREES OF FREEDOM
Info: 982 HYDROGEN GROUPS
Info: 4 ATOMS IN LARGEST HYDROGEN GROUP
Info: 982 MIGRATION GROUPS
Info: 4 ATOMS IN LARGEST MIGRATION GROUP
Info: TOTAL MASS = 17665.8 amu
Info: TOTAL CHARGE = 2.23517e-08 e
Info: MASS DENSITY = 0.971497 g/cm^3
Info: ATOM DENSITY = 0.0974962 atoms/A^3
Info: ADDED 0 IMPLICIT EXCLUSIONS
Info: NONBONDED TABLE R-SQUARED SPACING: 0.0625
Info: NONBONDED TABLE SIZE: 705 POINTS
Info: REMOVING COM VELOCITY -0.00556728 0.0755418 0.0300746
Info: Use 3D box decompostion in PME FFT.
Info: Updated CUDA force table with 4096 elements.
Info: Updated CUDA LJ table with 7 x 7 elements.
Info: Found 23 unique exclusion lists needing 72 bytes
TCL: Running for 1500000 steps
ETITLE: TS BOND ANGLE DIHED IMPRP ELECT VDW BOUNDARY MISC KINETIC TOTAL TEMP POTENTIAL TOTALAVG TEMPAVG PRESSURE GPRESSURE VOLUME PRESSAVG GPRESSAVG
ENERGY: 0 1.4678 17.1691 4.5815 0.0000 -10514.3303 1348.0234 0.0000 0.0000 1791.2323 -7351.8562 305.7629 -9143.0885 -7351.8562 305.7629 -507.9450 -428.4405 30196.0463 -507.9450 -428.4405
ENERGY: 300000 3.1001 12.7804 5.2680 0.0000 -10646.2210 1440.5973 0.0000 0.0000 1744.6946 -7439.7805 297.8190 -9184.4751 -7406.8799 300.5723 -360.0106 -308.7545 30542.3198 -470.8128 -417.9083
ENERGY: 600000 1.1486 11.8356 4.6699 0.0000 -10476.3285 1286.8555 0.0000 0.0000 1757.7155 -7414.1034 300.0416 -9171.8189 -7381.7425 303.5246 -1166.6672 -1009.3378 30220.6062 -569.8727 -492.6338
ENERGY: 900000 3.7862 15.6095 3.4572 0.0000 -10782.6044 1487.2747 0.0000 0.0000 1740.5839 -7531.8929 297.1172 -9272.4768 -7403.4462 302.6172 133.5707 206.9139 29729.1188 -321.5854 -248.0752
ENERGY: 1200000 1.4001 11.8008 4.6665 0.0000 -10693.5915 1476.4781 0.0000 0.0000 1779.9484 -7419.2977 303.8368 -9199.2461 -7403.0012 303.3298 144.9804 226.6621 30499.3260 -193.3877 -130.2743
ENERGY: 1500000 3.4137 11.0685 3.8811 0.0000 -10769.2395 1553.0934 0.0000 0.0000 1782.6985 -7415.0843 304.3062 -9197.7828 -7408.8460 302.3252 609.9569 663.2632 30205.6981 -172.0999 -110.5613
TCL: Running FEP window   2: Lambda1 0.05   Lambda2 0.1    [dLambda 0.05  ]
TCL: Setting parameter firsttimestep to 0
TCL: Setting parameter alchLambda to 0.05
Info: NONBONDED TABLE R-SQUARED SPACING: 0.0625
Info: NONBONDED TABLE SIZE: 705 POINTS
TCL: Setting parameter alchLambda2 to 0.1
Info: NONBONDED TABLE R-SQUARED SPACING: 0.0625
Info: NONBONDED TABLE SIZE: 705 POINTS
TCL: Running for 1500000 steps
ETITLE: TS BOND ANGLE DIHED IMPRP ELECT VDW BOUNDARY MISC KINETIC TOTAL TEMP POTENTIAL TOTALAVG TEMPAVG PRESSURE GPRESSURE VOLUME PRESSAVG GPRESSAVG
ENERGY: 0 3.4137 11.0685 3.8811 0.0000 -10769.2385 1555.1963 0.0000 0.0000 1781.7818 -7413.8971 304.1497 -9195.6789 -7413.8971 304.1497 579.3275 670.5699 30205.6981 579.3275 670.5699
ENERGY: 300000 1.7110 8.9553 5.1231 0.0000 -10628.9349 1439.9874 0.0000 0.0000 1764.8688 -7408.2892 301.2627 -9173.1580 -7405.4737 304.0859 90.4042 127.7688 30003.9235 220.1749 268.4102
ENERGY: 600000 0.7804 7.8969 3.4636 0.0000 -10623.2837 1422.2373 0.0000 0.0000 1700.7266 -7488.1789 290.3136 -9188.9055 -7413.0832 301.5988 -71.4601 -43.6980 29988.1272 116.5067 172.0244
ENERGY: 900000 1.0206 9.0193 5.9664 0.0000 -10716.5752 1509.4098 0.0000 0.0000 1706.9057 -7484.2535 291.3684 -9191.1592 -7410.0590 302.5856 928.3748 929.0665 29505.9532 218.4391 267.7590
ENERGY: 1200000 3.3280 11.4077 5.3259 0.0000 -10718.4469 1511.9475 0.0000 0.0000 1754.2643 -7432.1734 299.4525 -9186.4377 -7415.8981 301.2672 684.0413 815.3236 29671.7321 271.2691 330.8868
ENERGY: 1500000 4.4569 11.2815 5.3338 0.0000 -10625.4092 1408.6593 0.0000 0.0000 1745.2335 -7450.4443 297.9109 -9195.6778 -7407.7080 301.4393 -447.6965 -462.6436 30308.5113 173.8390 228.6089
TCL: Running FEP window   3: Lambda1 0.1    Lambda2 0.15000000000000002 [dLambda 0.05000000000000002]
TCL: Setting parameter firsttimestep to 0
TCL: Setting parameter alchLambda to 0.1
Info: NONBONDED TABLE R-SQUARED SPACING: 0.0625
Info: NONBONDED TABLE SIZE: 705 POINTS
TCL: Setting parameter alchLambda2 to 0.15000000000000002
Info: NONBONDED TABLE R-SQUARED SPACING: 0.0625
Info: NONBONDED TABLE SIZE: 705 POINTS
TCL: Running for 1500000 steps
ETITLE: TS BOND ANGLE DIHED IMPRP ELECT VDW BOUNDARY MISC KINETIC TOTAL TEMP POTENTIAL TOTALAVG TEMPAVG PRESSURE GPRESSURE VOLUME PRESSAVG GPRESSAVG
ENERGY: 0 4.4568 11.2815 5.3338 0.0000 -10625.4098 1409.7511 0.0000 0.0000 1744.3468 -7450.2399 297.7596 -9194.5866 -7450.2399 297.7596 -537.2144 -456.6130 30308.5113 -537.2144 -456.6130
ENERGY: 300000 0.7972 9.1446 3.8234 0.0000 -10723.6609 1476.4336 0.0000 0.0000 1782.3682 -7451.0939 304.2498 -9233.4621 -7424.7867 299.1641 170.9284 208.9964 29988.6766 -22.4672 37.2154
ENERGY: 600000 1.6754 7.9554 4.6002 0.0000 -10650.7222 1461.7436 0.0000 0.0000 1748.7441 -7426.0035 298.5102 -9174.7476 -7429.9125 298.2909 263.7164 336.5279 29952.6177 81.0398 146.6638
ENERGY: 900000 1.3537 9.6686 3.3668 0.0000 -10654.5230 1528.9912 0.0000 0.0000 1752.7566 -7358.3860 299.1951 -9111.1426 -7435.0552 297.8439 1005.9214 1070.0717 30049.6776 223.9578 287.3205
ENERGY: 1200000 1.4167 10.6597 6.8503 0.0000 -10596.5512 1412.5757 0.0000 0.0000 1731.7507 -7433.2980 295.6094 -9165.0487 -7432.6676 297.5254 -54.5201 41.0868 29846.9112 172.4776 238.1073
ENERGY: 1500000 3.3027 11.3266 3.9093 0.0000 -10758.3319 1547.9956 0.0000 0.0000 1712.3089 -7479.4888 292.2907 -9191.7977 -7435.1435 297.1578 905.7164 979.8965 29754.4738 125.8335 192.9053
TCL: Running FEP window   4: Lambda1 0.15000000000000002 Lambda2 0.2    [dLambda 0.04999999999999999]
TCL: Setting parameter firsttimestep to 0
TCL: Setting parameter alchLambda to 0.15000000000000002
Info: NONBONDED TABLE R-SQUARED SPACING: 0.0625
Info: NONBONDED TABLE SIZE: 705 POINTS
TCL: Setting parameter alchLambda2 to 0.2
Info: NONBONDED TABLE R-SQUARED SPACING: 0.0625
Info: NONBONDED TABLE SIZE: 705 POINTS
TCL: Running for 1500000 steps
ETITLE: TS BOND ANGLE DIHED IMPRP ELECT VDW BOUNDARY MISC KINETIC TOTAL TEMP POTENTIAL TOTALAVG TEMPAVG PRESSURE GPRESSURE VOLUME PRESSAVG GPRESSAVG
ENERGY: 0 3.3027 11.3267 3.9093 0.0000 -10758.3333 1549.9743 0.0000 0.0000 1711.4134 -7478.4070 292.1378 -9189.8204 -7478.4070 292.1378 922.9480 990.9697 29754.4738 922.9480 990.9697
ENERGY: 300000 0.1403 9.3650 4.9363 0.0000 -10745.5849 1500.1743 0.0000 0.0000 1783.9580 -7447.0111 304.5212 -9230.9691 -7438.0998 300.3425 279.0638 390.7683 30194.9027 9.0443 79.3936
ENERGY: 600000 3.7091 8.8519 5.7353 0.0000 -10608.4043 1450.5744 0.0000 0.0000 1783.8961 -7355.6375 304.5106 -9139.5336 -7430.6994 300.7830 111.1039 183.1245 30233.8015 85.8212 150.8234
ENERGY: 900000 1.7175 11.3502 5.0332 0.0000 -10615.8630 1424.5757 0.0000 0.0000 1741.5231 -7431.6633 297.2776 -9173.1864 -7435.8101 300.5426 24.0007 -6.1388 30426.9349 -81.5489 -27.8589
ENERGY: 1200000 0.4653 9.6498 4.3954 0.0000 -10476.1117 1332.8278 0.0000 0.0000 1819.9546 -7308.8188 310.6658 -9128.7734 -7427.2084 301.3068 -878.8084 -752.4809 30631.7094 -136.3473 -76.3064
ENERGY: 1500000 1.4728 11.9919 4.3472 0.0000 -10535.3896 1365.6085 0.0000 0.0000 1799.4954 -7352.4737 307.1734 -9151.9692 -7416.4228 301.4269 14.6870 108.6452 29238.1163 -145.9633 -81.4062
TCL: Running FEP window   5: Lambda1 0.2    Lambda2 0.25   [dLambda 0.04999999999999999]
TCL: Setting parameter firsttimestep to 0
TCL: Setting parameter alchLambda to 0.2
Info: NONBONDED TABLE R-SQUARED SPACING: 0.0625
Info: NONBONDED TABLE SIZE: 705 POINTS
TCL: Setting parameter alchLambda2 to 0.25
Info: NONBONDED TABLE R-SQUARED SPACING: 0.0625
Info: NONBONDED TABLE SIZE: 705 POINTS
TCL: Running for 1500000 steps
ETITLE: TS BOND ANGLE DIHED IMPRP ELECT VDW BOUNDARY MISC KINETIC TOTAL TEMP POTENTIAL TOTALAVG TEMPAVG PRESSURE GPRESSURE VOLUME PRESSAVG GPRESSAVG
ENERGY: 0 1.4728 11.9919 4.3472 0.0000 -10535.3897 1366.5789 0.0000 0.0000 1798.5647 -7352.4342 307.0146 -9150.9989 -7352.4342 307.0146 30.7092 115.9709 29238.1163 30.7092 115.9709
ENERGY: 300000 3.8086 7.1024 4.1130 0.0000 -10637.1529 1452.7691 0.0000 0.0000 1765.4812 -7403.8786 301.3672 -9169.3598 -7409.9943 302.3201 3.1840 39.7487 30479.9474 175.9192 237.1396
ENERGY: 600000 3.6102 7.1866 4.2934 0.0000 -10497.5769 1343.6387 0.0000 0.0000 1736.7641 -7402.0839 296.4652 -9138.8480 -7418.8880 298.8040 -741.3043 -747.5696 30246.0469 -36.2168 16.7532
ENERGY: 900000 2.7117 17.1882 6.1824 0.0000 -10719.6611 1468.3089 0.0000 0.0000 1783.8697 -7441.4002 304.5061 -9225.2699 -7420.4853 300.2237 125.2592 152.7459 30016.0746 -105.5037 -51.0192
ENERGY: 1200000 1.5980 11.5811 6.8484 0.0000 -10769.4247 1465.2495 0.0000 0.0000 1755.3091 -7528.8385 299.6308 -9284.1476 -7421.9240 300.8398 -31.5023 90.1533 30008.1958 -186.8969 -125.6319
ENERGY: 1500000 1.8094 12.9299 3.7662 0.0000 -10775.0132 1538.2794 0.0000 0.0000 1765.2103 -7453.0181 301.3210 -9218.2284 -7420.8346 300.8484 592.7397 609.2032 30188.3583 -178.6304 -121.1763
TCL: Running FEP window   6: Lambda1 0.25   Lambda2 0.3    [dLambda 0.04999999999999999]
TCL: Setting parameter firsttimestep to 0
TCL: Setting parameter alchLambda to 0.25
Info: NONBONDED TABLE R-SQUARED SPACING: 0.0625
Info: NONBONDED TABLE SIZE: 705 POINTS
TCL: Setting parameter alchLambda2 to 0.3
Info: NONBONDED TABLE R-SQUARED SPACING: 0.0625
Info: NONBONDED TABLE SIZE: 705 POINTS
TCL: Running for 1500000 steps
ETITLE: TS BOND ANGLE DIHED IMPRP ELECT VDW BOUNDARY MISC KINETIC TOTAL TEMP POTENTIAL TOTALAVG TEMPAVG PRESSURE GPRESSURE VOLUME PRESSAVG GPRESSAVG
ENERGY: 0 1.8094 12.9299 3.7662 0.0000 -10775.0140 1539.1036 0.0000 0.0000 1764.3365 -7453.0684 301.1718 -9217.4050 -7453.0684 301.1718 538.7370 619.4681 30188.3583 538.7370 619.4681
ENERGY: 300000 1.6216 11.0197 2.8381 0.0000 -10553.3580 1374.5350 0.0000 0.0000 1708.8437 -7454.4998 291.6992 -9163.3435 -7380.0399 302.3718 -226.7826 -162.3356 29570.1659 212.2249 309.9607
ENERGY: 600000 1.2175 8.5010 4.0848 0.0000 -10454.2775 1351.3721 0.0000 0.0000 1768.3317 -7320.7704 301.8538 -9089.1021 -7386.9107 302.4366 -590.3349 -524.1889 30722.1141 7.3137 98.1851
ENERGY: 900000 2.8497 12.8918 4.6382 0.0000 -10628.3683 1436.6317 0.0000 0.0000 1796.9478 -7374.4091 306.7386 -9171.3569 -7399.9096 300.9359 60.4368 143.5102 30180.7357 -5.5344 82.4115
ENERGY: 1200000 1.1181 10.0104 3.8823 0.0000 -10671.1975 1453.5672 0.0000 0.0000 1720.7712 -7481.8483 293.7352 -9202.6195 -7415.4549 300.5254 113.8738 162.3189 30120.8542 15.0846 100.6054
ENERGY: 1500000 3.3809 10.8745 5.8926 0.0000 -10605.0456 1370.3320 0.0000 0.0000 1785.3047 -7429.2609 304.7511 -9214.5656 -7413.3976 301.2517 -636.4336 -551.8476 30096.1300 -55.7122 20.2880
TCL: Running FEP window   7: Lambda1 0.3    Lambda2 0.35   [dLambda 0.04999999999999999]
TCL: Setting parameter firsttimestep to 0
TCL: Setting parameter alchLambda to 0.3
Info: NONBONDED TABLE R-SQUARED SPACING: 0.0625
Info: NONBONDED TABLE SIZE: 705 POINTS
TCL: Setting parameter alchLambda2 to 0.35
Info: NONBONDED TABLE R-SQUARED SPACING: 0.0625
Info: NONBONDED TABLE SIZE: 705 POINTS
TCL: Running for 1500000 steps
ETITLE: TS BOND ANGLE DIHED IMPRP ELECT VDW BOUNDARY MISC KINETIC TOTAL TEMP POTENTIAL TOTALAVG TEMPAVG PRESSURE GPRESSURE VOLUME PRESSAVG GPRESSAVG
ENERGY: 0 3.3809 10.8745 5.8926 0.0000 -10605.0464 1371.6281 0.0000 0.0000 1784.4232 -7428.8472 304.6006 -9213.2704 -7428.8472 304.6006 -619.4640 -537.5742 30096.1300 -619.4640 -537.5742
ENERGY: 300000 2.1361 11.4441 6.9991 0.0000 -10568.9587 1371.6779 0.0000 0.0000 1778.1158 -7398.5857 303.5239 -9176.7015 -7425.1095 300.9912 -494.9664 -452.3425 30167.9857 -109.3363 -41.0347
ENERGY: 600000 1.4067 11.9274 5.2494 0.0000 -10613.8416 1465.7595 0.0000 0.0000 1710.5488 -7418.9499 291.9903 -9129.4986 -7425.3223 299.9576 260.6624 361.1428 30197.1285 -156.5042 -99.0934
ENERGY: 900000 1.9267 8.5381 4.6921 0.0000 -10643.7662 1505.8647 0.0000 0.0000 1796.1048 -7326.6398 306.5947 -9122.7446 -7411.3002 300.8358 479.7863 542.6409 30477.0550 -82.0535 -32.1027
ENERGY: 1200000 3.1162 7.0653 3.9215 0.0000 -10496.2652 1385.4936 0.0000 0.0000 1755.0110 -7341.6576 299.5800 -9096.6686 -7407.5160 300.6505 -573.7505 -520.0913 30748.0256 -139.9375 -82.2588
ENERGY: 1500000 1.5297 5.6911 3.4950 0.0000 -10546.6459 1408.1080 0.0000 0.0000 1806.5339 -7321.2883 308.3749 -9127.8222 -7407.5001 300.7744 115.2919 140.9834 30029.2169 -191.8857 -131.6690
TCL: Running FEP window   8: Lambda1 0.35   Lambda2 0.39999999999999997 [dLambda 0.04999999999999999]
TCL: Setting parameter firsttimestep to 0
TCL: Setting parameter alchLambda to 0.35
Info: NONBONDED TABLE R-SQUARED SPACING: 0.0625
Info: NONBONDED TABLE SIZE: 705 POINTS
TCL: Setting parameter alchLambda2 to 0.39999999999999997
Info: NONBONDED TABLE R-SQUARED SPACING: 0.0625
Info: NONBONDED TABLE SIZE: 705 POINTS
TCL: Running for 1500000 steps
ETITLE: TS BOND ANGLE DIHED IMPRP ELECT VDW BOUNDARY MISC KINETIC TOTAL TEMP POTENTIAL TOTALAVG TEMPAVG PRESSURE GPRESSURE VOLUME PRESSAVG GPRESSAVG
ENERGY: 0 1.5297 5.6911 3.4950 0.0000 -10546.6456 1408.7665 0.0000 0.0000 1805.7276 -7321.4358 308.2373 -9127.1634 -7321.4358 308.2373 68.5865 153.2588 30029.2169 68.5865 153.2588
ENERGY: 300000 2.1151 9.8540 4.0614 0.0000 -10632.7186 1425.2856 0.0000 0.0000 1660.2953 -7531.1072 283.4120 -9191.4025 -7404.6009 299.7717 -266.6002 -231.9934 30273.8972 58.7762 113.1708
ENERGY: 600000 1.3040 11.5310 4.1049 0.0000 -10661.0351 1479.5539 0.0000 0.0000 1815.5629 -7348.9784 309.9161 -9164.5412 -7403.0043 301.1197 529.6745 558.0576 30107.4267 166.1732 224.2732
ENERGY: 900000 1.9887 11.7055 3.6243 0.0000 -10577.1009 1394.9787 0.0000 0.0000 1760.4889 -7404.3148 300.5150 -9164.8037 -7413.4717 300.6040 -339.6450 -208.8054 30471.5522 176.7404 234.0813
ENERGY: 1200000 3.5683 8.8770 5.1096 0.0000 -10584.5979 1399.1412 0.0000 0.0000 1751.7123 -7416.1895 299.0169 -9167.9018 -7417.0185 300.2599 -186.0092 -142.4342 29963.0954 116.0546 166.7074
ENERGY: 1500000 1.0702 12.6183 3.7312 0.0000 -10634.4247 1379.3999 0.0000 0.0000 1742.7556 -7494.8494 297.4880 -9237.6050 -7424.6668 299.8706 -596.5420 -537.3138 29895.7884 39.5244 91.5525
TCL: Running FEP window   9: Lambda1 0.39999999999999997 Lambda2 0.44999999999999996 [dLambda 0.04999999999999999]
TCL: Setting parameter firsttimestep to 0
TCL: Setting parameter alchLambda to 0.39999999999999997
Info: NONBONDED TABLE R-SQUARED SPACING: 0.0625
Info: NONBONDED TABLE SIZE: 705 POINTS
TCL: Setting parameter alchLambda2 to 0.44999999999999996
Info: NONBONDED TABLE R-SQUARED SPACING: 0.0625
Info: NONBONDED TABLE SIZE: 705 POINTS
TCL: Running for 1500000 steps
ETITLE: TS BOND ANGLE DIHED IMPRP ELECT VDW BOUNDARY MISC KINETIC TOTAL TEMP POTENTIAL TOTALAVG TEMPAVG PRESSURE GPRESSURE VOLUME PRESSAVG GPRESSAVG
ENERGY: 0 1.0702 12.6183 3.7312 0.0000 -10634.4239 1379.9807 0.0000 0.0000 1741.8588 -7495.1646 297.3349 -9237.0235 -7495.1646 297.3349 -611.3854 -526.6562 29895.7884 -611.3854 -526.6562
ENERGY: 300000 1.8288 9.9227 6.1561 0.0000 -10614.6329 1447.0514 0.0000 0.0000 1775.7495 -7373.9242 303.1200 -9149.6737 -7439.4892 302.1597 -26.9764 39.7854 30533.8766 -214.1956 -137.1294
ENERGY: 600000 1.1798 9.6356 4.2970 0.0000 -10636.3849 1421.1366 0.0000 0.0000 1717.7266 -7482.4093 293.2155 -9200.1359 -7428.3450 300.2466 114.1011 136.1101 29978.4609 -161.8776 -105.6654
ENERGY: 900000 1.1949 9.7513 3.5684 0.0000 -10639.2426 1437.4427 0.0000 0.0000 1795.2214 -7392.0640 306.4439 -9187.2854 -7433.5337 301.0179 173.5836 282.8720 29943.2045 -121.4345 -62.8865
ENERGY: 1200000 4.6563 6.9327 3.5428 0.0000 -10495.4583 1358.7197 0.0000 0.0000 1775.1243 -7346.4824 303.0133 -9121.6067 -7434.7031 300.7804 -406.1348 -391.1488 30414.9245 -140.4822 -81.6189
ENERGY: 1500000 5.0924 11.9070 6.3491 0.0000 -10556.7197 1332.7762 0.0000 0.0000 1754.0280 -7446.5670 299.4122 -9200.5949 -7435.9455 300.1333 -828.4476 -766.4983 29992.1254 -116.6752 -58.1310
TCL: Running FEP window  10: Lambda1 0.44999999999999996 Lambda2 0.49999999999999994 [dLambda 0.04999999999999999]
TCL: Setting parameter firsttimestep to 0
TCL: Setting parameter alchLambda to 0.44999999999999996
Info: NONBONDED TABLE R-SQUARED SPACING: 0.0625
Info: NONBONDED TABLE SIZE: 705 POINTS
TCL: Setting parameter alchLambda2 to 0.49999999999999994
Info: NONBONDED TABLE R-SQUARED SPACING: 0.0625
Info: NONBONDED TABLE SIZE: 705 POINTS
TCL: Running for 1500000 steps
ETITLE: TS BOND ANGLE DIHED IMPRP ELECT VDW BOUNDARY MISC KINETIC TOTAL TEMP POTENTIAL TOTALAVG TEMPAVG PRESSURE GPRESSURE VOLUME PRESSAVG GPRESSAVG
ENERGY: 0 5.0925 11.9070 6.3491 0.0000 -10556.7202 1333.2107 0.0000 0.0000 1753.1305 -7447.0305 299.2589 -9200.1609 -7447.0305 299.2589 -829.2830 -754.3463 29992.1254 -829.2830 -754.3463
ENERGY: 300000 1.5788 7.1622 4.2294 0.0000 -10531.0924 1351.6097 0.0000 0.0000 1766.3960 -7400.1163 301.5234 -9166.5123 -7447.1475 301.2253 -416.5776 -426.8598 29979.1474 -233.5662 -187.1625
ENERGY: 600000 3.2407 6.9184 4.0657 0.0000 -10443.2465 1340.8398 0.0000 0.0000 1781.5316 -7306.6503 304.1070 -9088.1819 -7422.7267 301.3398 -701.0135 -690.0232 30858.9361 -113.9698 -67.3544
ENERGY: 900000 2.6271 9.6193 3.5904 0.0000 -10679.4894 1403.4091 0.0000 0.0000 1799.7320 -7460.5115 307.2138 -9260.2435 -7424.1208 301.6104 -308.3387 -295.9094 30304.7623 -170.6439 -119.1821
ENERGY: 1200000 1.5968 13.0898 4.7272 0.0000 -10792.7278 1484.4580 0.0000 0.0000 1768.7007 -7520.1554 301.9168 -9288.8561 -7422.0118 302.2163 91.4939 155.6438 30133.9807 -179.7183 -125.5793
ENERGY: 1500000 0.3753 11.3118 5.7664 0.0000 -10539.6076 1369.1318 0.0000 0.0000 1773.0935 -7379.9287 302.6666 -9153.0222 -7414.0109 302.0916 -293.7640 -217.8777 30069.2067 -196.8018 -145.8360
TCL: Running FEP window  11: Lambda1 0.49999999999999994 Lambda2 0.5499999999999999 [dLambda 0.04999999999999999]
TCL: Setting parameter firsttimestep to 0
TCL: Setting parameter alchLambda to 0.49999999999999994
Info: NONBONDED TABLE R-SQUARED SPACING: 0.0625
Info: NONBONDED TABLE SIZE: 705 POINTS
TCL: Setting parameter alchLambda2 to 0.5499999999999999
Info: NONBONDED TABLE R-SQUARED SPACING: 0.0625
Info: NONBONDED TABLE SIZE: 705 POINTS
TCL: Running for 1500000 steps
ETITLE: TS BOND ANGLE DIHED IMPRP ELECT VDW BOUNDARY MISC KINETIC TOTAL TEMP POTENTIAL TOTALAVG TEMPAVG PRESSURE GPRESSURE VOLUME PRESSAVG GPRESSAVG
ENERGY: 0 0.3753 11.3118 5.7664 0.0000 -10539.6084 1369.2692 0.0000 0.0000 1772.2267 -7380.6589 302.5187 -9152.8856 -7380.6589 302.5187 -287.5459 -204.5121 30069.2067 -287.5459 -204.5121
ENERGY: 300000 2.6218 11.0004 4.0256 0.0000 -10704.8586 1451.2785 0.0000 0.0000 1748.6069 -7487.3255 298.4868 -9235.9324 -7426.7440 297.7389 -63.2247 61.0784 30451.9171 -80.3220 -10.5167
ENERGY: 600000 0.7047 10.2282 4.4564 0.0000 -10646.3997 1458.4045 0.0000 0.0000 1738.8520 -7433.7539 296.8216 -9172.6059 -7419.5189 298.0065 194.0607 326.7834 30153.2941 115.6816 195.1795
ENERGY: 900000 3.6426 6.5437 8.0414 0.0000 -10641.0006 1404.4836 0.0000 0.0000 1746.9517 -7471.3376 298.2042 -9218.2893 -7423.5812 298.6425 -519.2812 -465.5658 30439.2120 79.3999 157.1609
ENERGY: 1200000 2.6430 6.1598 4.9964 0.0000 -10542.7475 1362.7430 0.0000 0.0000 1722.6742 -7443.5311 294.0601 -9166.2054 -7425.7146 298.6078 -650.0323 -596.1234 30559.5317 19.0627 89.8425
ENERGY: 1500000 1.7207 9.2234 3.5679 0.0000 -10623.7040 1382.7060 0.0000 0.0000 1722.1586 -7504.3274 293.9721 -9226.4860 -7427.2765 298.8624 -632.5707 -609.6503 30511.6990 -17.9302 49.6130
TCL: Running FEP window  12: Lambda1 0.5499999999999999 Lambda2 0.6    [dLambda 0.050000000000000044]
TCL: Setting parameter firsttimestep to 0
TCL: Setting parameter alchLambda to 0.5499999999999999
Info: NONBONDED TABLE R-SQUARED SPACING: 0.0625
Info: NONBONDED TABLE SIZE: 705 POINTS
TCL: Setting parameter alchLambda2 to 0.6
Info: NONBONDED TABLE R-SQUARED SPACING: 0.0625
Info: NONBONDED TABLE SIZE: 705 POINTS
TCL: Running for 1500000 steps
ETITLE: TS BOND ANGLE DIHED IMPRP ELECT VDW BOUNDARY MISC KINETIC TOTAL TEMP POTENTIAL TOTALAVG TEMPAVG PRESSURE GPRESSURE VOLUME PRESSAVG GPRESSAVG
ENERGY: 0 1.7207 9.2234 3.5679 0.0000 -10624.2306 1382.6338 0.0000 0.0000 1721.2981 -7505.7867 293.8252 -9227.0848 -7505.7867 293.8252 -673.2730 -603.4218 30511.6990 -673.2730 -603.4218
ENERGY: 300000 2.8576 10.0909 4.0907 0.0000 -10711.4365 1473.5439 0.0000 0.0000 1756.8031 -7464.0503 299.8859 -9220.8533 -7484.0042 296.3934 329.3197 417.3536 29986.9397 211.9378 285.8164
ENERGY: 600000 2.7135 6.7702 4.9385 0.0000 -10697.0329 1497.5712 0.0000 0.0000 1775.5641 -7409.4753 303.0884 -9185.0394 -7443.4205 298.9432 319.9952 389.7907 30462.1793 -59.7457 7.1409
ENERGY: 900000 4.1496 13.6461 5.5802 0.0000 -10623.0778 1430.9423 0.0000 0.0000 1796.4078 -7372.3518 306.6464 -9168.7596 -7437.2661 300.6383 87.5014 153.9711 29994.6971 -75.2164 -8.0795
ENERGY: 1200000 3.5844 12.4256 3.6595 0.0000 -10740.0226 1503.4528 0.0000 0.0000 1718.7060 -7498.1943 293.3827 -9216.9004 -7430.7620 299.7521 391.9696 462.0598 30199.9301 -39.2323 25.3363
ENERGY: 1500000 3.8501 6.5723 3.9700 0.0000 -10589.4662 1394.0714 0.0000 0.0000 1737.5454 -7443.4570 296.5986 -9181.0025 -7432.5098 299.4385 -614.2175 -523.0495 30783.1897 -33.3064 33.2866
TCL: Running FEP window  13: Lambda1 0.6    Lambda2 0.65   [dLambda 0.050000000000000044]
TCL: Setting parameter firsttimestep to 0
TCL: Setting parameter alchLambda to 0.6
Info: NONBONDED TABLE R-SQUARED SPACING: 0.0625
Info: NONBONDED TABLE SIZE: 705 POINTS
TCL: Setting parameter alchLambda2 to 0.65
Info: NONBONDED TABLE R-SQUARED SPACING: 0.0625
Info: NONBONDED TABLE SIZE: 705 POINTS
TCL: Running for 1500000 steps
ETITLE: TS BOND ANGLE DIHED IMPRP ELECT VDW BOUNDARY MISC KINETIC TOTAL TEMP POTENTIAL TOTALAVG TEMPAVG PRESSURE GPRESSURE VOLUME PRESSAVG GPRESSAVG
ENERGY: 0 3.8501 6.5723 3.9700 0.0000 -10589.7705 1394.3684 0.0000 0.0000 1736.6534 -7444.3563 296.4463 -9181.0097 -7444.3563 296.4463 -590.8858 -511.3831 30783.1897 -590.8858 -511.3831
ENERGY: 300000 3.4837 15.4068 3.4319 0.0000 -10623.1299 1425.0438 0.0000 0.0000 1807.6991 -7368.0647 308.5738 -9175.7638 -7393.7611 302.6605 -1.0863 50.4260 30415.9750 25.2250 104.0368
ENERGY: 600000 2.2730 10.5705 4.4936 0.0000 -10692.5593 1453.3908 0.0000 0.0000 1762.0386 -7459.7927 300.7796 -9221.8313 -7432.3130 300.6193 -206.6973 -124.1277 30585.0725 -78.5120 -8.6850
ENERGY: 900000 2.4255 10.4033 5.7658 0.0000 -10567.2066 1373.9792 0.0000 0.0000 1750.9562 -7423.6767 298.8878 -9174.6328 -7428.1191 299.8434 -259.2050 -220.4119 30152.8114 -150.4896 -82.1817
ENERGY: 1200000 1.9002 10.2068 4.7493 0.0000 -10670.0395 1508.6859 0.0000 0.0000 1746.9008 -7397.5965 298.1955 -9144.4973 -7432.2499 299.4399 505.9734 556.4161 30463.2862 -105.7228 -39.3539
ENERGY: 1500000 3.5839 11.4112 6.5768 0.0000 -10598.1275 1341.9000 0.0000 0.0000 1778.8073 -7455.8483 303.6420 -9234.6556 -7431.1789 300.2716 -751.7158 -643.0668 30014.8073 -146.5912 -82.3203
TCL: Running FEP window  14: Lambda1 0.65   Lambda2 0.7000000000000001 [dLambda 0.050000000000000044]
TCL: Setting parameter firsttimestep to 0
TCL: Setting parameter alchLambda to 0.65
Info: NONBONDED TABLE R-SQUARED SPACING: 0.0625
Info: NONBONDED TABLE SIZE: 705 POINTS
TCL: Setting parameter alchLambda2 to 0.7000000000000001
Info: NONBONDED TABLE R-SQUARED SPACING: 0.0625
Info: NONBONDED TABLE SIZE: 705 POINTS
TCL: Running for 1500000 steps
ETITLE: TS BOND ANGLE DIHED IMPRP ELECT VDW BOUNDARY MISC KINETIC TOTAL TEMP POTENTIAL TOTALAVG TEMPAVG PRESSURE GPRESSURE VOLUME PRESSAVG GPRESSAVG
ENERGY: 0 3.5839 11.4112 6.5768 0.0000 -10597.9770 1341.3365 0.0000 0.0000 1777.9257 -7457.1429 303.4915 -9235.0686 -7457.1429 303.4915 -725.3860 -640.7915 30014.8073 -725.3860 -640.7915
ENERGY: 300000 1.9895 11.3981 4.0953 0.0000 -10678.4929 1503.1301 0.0000 0.0000 1742.7352 -7415.1447 297.4845 -9157.8800 -7420.6059 302.6701 479.3574 590.3810 30437.7455 227.6696 302.3761
ENERGY: 600000 3.5505 9.8133 4.2250 0.0000 -10574.7610 1431.7298 0.0000 0.0000 1757.0073 -7368.4351 299.9207 -9125.4424 -7428.2830 300.5502 51.5717 204.0846 30345.9675 330.9451 417.3108
ENERGY: 900000 0.8808 10.1862 4.9147 0.0000 -10718.2891 1465.9381 0.0000 0.0000 1736.2025 -7500.1669 296.3693 -9236.3694 -7427.9480 300.9873 134.4752 158.3022 30160.0055 296.9734 373.4483
ENERGY: 1200000 1.6165 9.9139 3.7137 0.0000 -10617.6601 1456.6088 0.0000 0.0000 1793.4776 -7352.3296 306.1462 -9145.8072 -7419.1951 301.4789 262.7706 370.9970 30325.3493 217.5847 297.3006
ENERGY: 1500000 1.5274 13.9625 3.9315 0.0000 -10626.5486 1473.0599 0.0000 0.0000 1787.4032 -7346.6640 305.1093 -9134.0672 -7415.8080 300.8177 610.7433 631.8578 30032.6982 111.4321 184.6428
TCL: Running FEP window  15: Lambda1 0.7000000000000001 Lambda2 0.7500000000000001 [dLambda 0.050000000000000044]
TCL: Setting parameter firsttimestep to 0
TCL: Setting parameter alchLambda to 0.7000000000000001
Info: NONBONDED TABLE R-SQUARED SPACING: 0.0625
Info: NONBONDED TABLE SIZE: 705 POINTS
TCL: Setting parameter alchLambda2 to 0.7500000000000001
Info: NONBONDED TABLE R-SQUARED SPACING: 0.0625
Info: NONBONDED TABLE SIZE: 705 POINTS
TCL: Running for 1500000 steps
ETITLE: TS BOND ANGLE DIHED IMPRP ELECT VDW BOUNDARY MISC KINETIC TOTAL TEMP POTENTIAL TOTALAVG TEMPAVG PRESSURE GPRESSURE VOLUME PRESSAVG GPRESSAVG
ENERGY: 0 1.5275 13.9625 3.9315 0.0000 -10627.0085 1472.5457 0.0000 0.0000 1786.5152 -7348.5261 304.9577 -9135.0414 -7348.5261 304.9577 561.4980 637.1612 30032.6982 561.4980 637.1612
ENERGY: 300000 2.7276 11.2220 5.4623 0.0000 -10421.4292 1316.6017 0.0000 0.0000 1770.8322 -7314.5835 302.2806 -9085.4156 -7408.2903 301.0454 -1002.3217 -926.9666 30911.0096 -412.9927 -332.1842
ENERGY: 600000 2.2821 10.8872 4.4974 0.0000 -10585.8532 1363.8403 0.0000 0.0000 1774.9298 -7429.4164 302.9801 -9204.3462 -7422.6124 300.8443 -913.3636 -754.5318 30547.0467 -347.8945 -271.5100
ENERGY: 900000 2.8514 9.8359 6.9432 0.0000 -10586.5966 1426.6809 0.0000 0.0000 1696.6995 -7443.5858 289.6262 -9140.2853 -7412.0053 299.1632 77.3504 96.5414 30318.4188 -100.7324 -37.9825
ENERGY: 1200000 0.7604 5.6433 4.9944 0.0000 -10789.8376 1538.9370 0.0000 0.0000 1798.4826 -7441.0200 307.0005 -9239.5026 -7414.4065 300.2943 772.0594 813.1256 30097.5612 -22.2328 37.1773
ENERGY: 1500000 1.4138 8.3296 4.0603 0.0000 -10672.7578 1372.6149 0.0000 0.0000 1729.3727 -7556.9665 295.2035 -9286.3393 -7428.8213 300.0891 -560.4759 -476.0525 30152.8606 -12.9263 48.7222
TCL: Running FEP window  16: Lambda1 0.7500000000000001 Lambda2 0.8000000000000002 [dLambda 0.050000000000000044]
TCL: Setting parameter firsttimestep to 0
TCL: Setting parameter alchLambda to 0.7500000000000001
Info: NONBONDED TABLE R-SQUARED SPACING: 0.0625
Info: NONBONDED TABLE SIZE: 705 POINTS
TCL: Setting parameter alchLambda2 to 0.8000000000000002
Info: NONBONDED TABLE R-SQUARED SPACING: 0.0625
Info: NONBONDED TABLE SIZE: 705 POINTS
TCL: Running for 1500000 steps
ETITLE: TS BOND ANGLE DIHED IMPRP ELECT VDW BOUNDARY MISC KINETIC TOTAL TEMP POTENTIAL TOTALAVG TEMPAVG PRESSURE GPRESSURE VOLUME PRESSAVG GPRESSAVG
ENERGY: 0 1.4138 8.3296 4.0603 0.0000 -10674.7122 1373.8502 0.0000 0.0000 1728.5058 -7558.5526 295.0555 -9287.0584 -7558.5526 295.0555 -535.5786 -458.4788 30152.8606 -535.5786 -458.4788
ENERGY: 300000 2.5165 7.7584 5.5687 0.0000 -10621.0538 1431.4777 0.0000 0.0000 1737.7197 -7436.0129 296.6283 -9173.7326 -7450.6997 299.7084 131.5495 127.2347 30289.9206 84.7681 100.0154
ENERGY: 600000 1.8652 9.2325 6.9426 0.0000 -10683.6938 1480.7877 0.0000 0.0000 1694.6365 -7490.2293 289.2740 -9184.8658 -7444.2630 299.5473 541.3486 559.7210 29927.8323 168.5047 199.9167
ENERGY: 900000 2.6810 8.1727 5.9326 0.0000 -10662.8265 1453.9494 0.0000 0.0000 1807.2111 -7384.8796 308.4905 -9192.0908 -7433.2521 301.2113 329.3758 390.3473 29969.5292 129.9034 175.2291
ENERGY: 1200000 1.4011 17.3047 3.3135 0.0000 -10563.3647 1369.0746 0.0000 0.0000 1778.6557 -7393.6152 303.6161 -9172.2709 -7429.0957 300.1925 -610.7590 -508.8647 30795.1323 6.0541 66.2171
ENERGY: 1500000 2.1153 6.2944 6.3645 0.0000 -10539.2454 1352.7135 0.0000 0.0000 1821.8849 -7349.8728 310.9953 -9171.7577 -7422.5504 300.7315 -510.0793 -472.1071 30260.3199 -81.6136 -19.1541
TCL: Running FEP window  17: Lambda1 0.8000000000000002 Lambda2 0.8500000000000002 [dLambda 0.050000000000000044]
TCL: Setting parameter firsttimestep to 0
TCL: Setting parameter alchLambda to 0.8000000000000002
Info: NONBONDED TABLE R-SQUARED SPACING: 0.0625
Info: NONBONDED TABLE SIZE: 705 POINTS
TCL: Setting parameter alchLambda2 to 0.8500000000000002
Info: NONBONDED TABLE R-SQUARED SPACING: 0.0625
Info: NONBONDED TABLE SIZE: 705 POINTS
TCL: Running for 1500000 steps
ETITLE: TS BOND ANGLE DIHED IMPRP ELECT VDW BOUNDARY MISC KINETIC TOTAL TEMP POTENTIAL TOTALAVG TEMPAVG PRESSURE GPRESSURE VOLUME PRESSAVG GPRESSAVG
ENERGY: 0 2.1153 6.2944 6.3645 0.0000 -10540.4749 1353.5266 0.0000 0.0000 1820.9333 -7351.2408 310.8329 -9172.1741 -7351.2408 310.8329 -528.9352 -449.1490 30260.3199 -528.9352 -449.1490
ENERGY: 300000 2.7546 11.1637 6.7498 0.0000 -10575.2627 1444.4392 0.0000 0.0000 1758.1937 -7351.9617 300.1232 -9110.1554 -7411.8645 303.4747 265.6209 320.2534 30303.6450 -167.4200 -114.1464
ENERGY: 600000 1.7321 8.6275 4.2582 0.0000 -10607.5757 1415.0276 0.0000 0.0000 1740.5893 -7437.3411 297.1182 -9177.9303 -7428.9345 301.1226 -186.6848 -178.2000 30325.9623 -145.9725 -98.2674
ENERGY: 900000 1.5089 11.9217 4.7019 0.0000 -10735.5357 1436.3903 0.0000 0.0000 1797.3885 -7483.6243 306.8138 -9281.0128 -7438.8975 302.1060 -133.9839 -33.9153 30053.5277 -69.6532 -30.2432
ENERGY: 1200000 3.4382 5.9250 3.9319 0.0000 -10812.3010 1521.7679 0.0000 0.0000 1750.3908 -7526.8473 298.7913 -9277.2381 -7438.7326 301.3971 1113.2958 1214.6875 29289.3875 20.3487 69.0110
ENERGY: 1500000 4.5309 10.4334 3.1787 0.0000 -10669.0324 1435.9223 0.0000 0.0000 1778.9331 -7436.0340 303.6635 -9214.9671 -7426.3384 301.9311 -164.8256 -19.8848 30282.0217 -62.1521 0.1934
TCL: Running FEP window  18: Lambda1 0.8500000000000002 Lambda2 0.9000000000000002 [dLambda 0.050000000000000044]
TCL: Setting parameter firsttimestep to 0
TCL: Setting parameter alchLambda to 0.8500000000000002
Info: NONBONDED TABLE R-SQUARED SPACING: 0.0625
Info: NONBONDED TABLE SIZE: 705 POINTS
TCL: Setting parameter alchLambda2 to 0.9000000000000002
Info: NONBONDED TABLE R-SQUARED SPACING: 0.0625
Info: NONBONDED TABLE SIZE: 705 POINTS
TCL: Running for 1500000 steps
ETITLE: TS BOND ANGLE DIHED IMPRP ELECT VDW BOUNDARY MISC KINETIC TOTAL TEMP POTENTIAL TOTALAVG TEMPAVG PRESSURE GPRESSURE VOLUME PRESSAVG GPRESSAVG
ENERGY: 0 4.5309 10.4334 3.1787 0.0000 -10671.3319 1437.3596 0.0000 0.0000 1778.0873 -7437.7421 303.5191 -9215.8294 -7437.7421 303.5191 -86.4892 6.1249 30282.0217 -86.4892 6.1249
ENERGY: 300000 2.3171 9.1761 4.2939 0.0000 -10744.5196 1482.2736 0.0000 0.0000 1752.1271 -7494.3317 299.0877 -9246.4588 -7441.9581 299.1304 180.0052 232.0006 30305.7807 -0.9001 52.4706
ENERGY: 600000 0.4191 8.5364 4.0394 0.0000 -10719.2451 1514.4053 0.0000 0.0000 1720.8411 -7471.0038 293.7472 -9191.8449 -7446.8093 297.3666 753.8482 834.1683 30140.4617 66.2313 143.2011
ENERGY: 900000 4.8507 11.5990 4.2832 0.0000 -10607.4558 1415.8779 0.0000 0.0000 1765.4507 -7405.3944 301.3620 -9170.8451 -7447.6694 298.5288 -151.7401 -73.3503 30262.7486 1.3446 75.2793
ENERGY: 1200000 2.5928 13.4157 5.8224 0.0000 -10774.3617 1521.0037 0.0000 0.0000 1726.3364 -7505.1907 294.6852 -9231.5270 -7443.6336 299.6553 372.2367 500.3315 30302.5218 85.9164 159.7138
ENERGY: 1500000 2.0320 8.6309 3.1095 0.0000 -10673.1274 1413.8323 0.0000 0.0000 1777.5031 -7468.0195 303.4193 -9245.5226 -7444.1076 300.2812 -340.8363 -239.5534 30271.3624 105.4958 177.1797
TCL: Running FEP window  19: Lambda1 0.9000000000000002 Lambda2 0.9500000000000003 [dLambda 0.050000000000000044]
TCL: Setting parameter firsttimestep to 0
TCL: Setting parameter alchLambda to 0.9000000000000002
Info: NONBONDED TABLE R-SQUARED SPACING: 0.0625
Info: NONBONDED TABLE SIZE: 705 POINTS
TCL: Setting parameter alchLambda2 to 0.9500000000000003
Info: NONBONDED TABLE R-SQUARED SPACING: 0.0625
Info: NONBONDED TABLE SIZE: 705 POINTS
TCL: Running for 1500000 steps
ETITLE: TS BOND ANGLE DIHED IMPRP ELECT VDW BOUNDARY MISC KINETIC TOTAL TEMP POTENTIAL TOTALAVG TEMPAVG PRESSURE GPRESSURE VOLUME PRESSAVG GPRESSAVG
ENERGY: 0 2.0320 8.6309 3.1095 0.0000 -10674.5823 1415.5377 0.0000 0.0000 1776.6129 -7468.6593 303.2674 -9245.2722 -7468.6593 303.2674 -297.6572 -210.9547 30271.3624 -297.6572 -210.9547
ENERGY: 300000 1.5620 9.3724 3.8357 0.0000 -10569.5625 1360.3637 0.0000 0.0000 1757.0615 -7437.3671 299.9300 -9194.4286 -7431.3533 300.7414 -249.6604 -163.1019 29855.1560 -451.0143 -365.9971
ENERGY: 600000 3.8184 11.5445 4.0027 0.0000 -10544.0462 1333.5816 0.0000 0.0000 1775.4966 -7415.6024 303.0768 -9191.0991 -7447.0236 301.3778 -760.7562 -720.6073 30228.2506 -380.4184 -308.1332
ENERGY: 900000 0.8462 11.0042 3.8615 0.0000 -10670.2873 1467.5551 0.0000 0.0000 1754.9617 -7432.0586 299.5715 -9187.0202 -7446.7167 300.8137 310.1259 346.3851 30566.4617 -177.8939 -105.1766
ENERGY: 1200000 1.1249 9.7622 5.7273 0.0000 -10682.8544 1450.3066 0.0000 0.0000 1774.2421 -7441.6913 302.8627 -9215.9334 -7450.0180 300.5293 -128.1702 -18.7208 30635.8585 -119.3935 -43.7096
ENERGY: 1500000 1.2247 12.0491 6.2715 0.0000 -10506.0769 1380.8804 0.0000 0.0000 1778.2945 -7327.3566 303.5545 -9105.6512 -7439.0240 300.8119 -402.0527 -351.0979 30923.4254 -171.4765 -96.6502
TCL: Running FEP window  20: Lambda1 0.9500000000000003 Lambda2 1.0    [dLambda 0.04999999999999971]
TCL: Setting parameter firsttimestep to 0
TCL: Setting parameter alchLambda to 0.9500000000000003
Info: NONBONDED TABLE R-SQUARED SPACING: 0.0625
Info: NONBONDED TABLE SIZE: 705 POINTS
TCL: Setting parameter alchLambda2 to 1.0
Info: NONBONDED TABLE R-SQUARED SPACING: 0.0625
Info: NONBONDED TABLE SIZE: 705 POINTS
TCL: Running for 1500000 steps
ETITLE: TS BOND ANGLE DIHED IMPRP ELECT VDW BOUNDARY MISC KINETIC TOTAL TEMP POTENTIAL TOTALAVG TEMPAVG PRESSURE GPRESSURE VOLUME PRESSAVG GPRESSAVG
ENERGY: 0 1.2247 12.0491 6.2715 0.0000 -10507.4210 1381.6757 0.0000 0.0000 1777.4229 -7328.7770 303.4057 -9106.1999 -7328.7770 303.4057 -422.4095 -333.5423 30923.4254 -422.4095 -333.5423
ENERGY: 300000 0.8960 11.6565 5.2386 0.0000 -10546.2076 1341.9563 0.0000 0.0000 1740.1397 -7446.3204 297.0414 -9186.4601 -7416.7292 300.2384 -663.0818 -626.3639 30213.6383 -357.5215 -287.6975
ENERGY: 600000 1.1850 9.2114 4.9868 0.0000 -10597.8129 1433.2420 0.0000 0.0000 1765.6902 -7383.4976 301.4029 -9149.1878 -7432.8382 300.2819 126.7152 160.8213 30467.3611 -123.7479 -61.7796
ENERGY: 900000 1.4531 9.1491 4.2991 0.0000 -10636.7834 1379.2717 0.0000 0.0000 1724.1457 -7518.4647 294.3112 -9242.6103 -7443.9842 299.9810 -74.9698 43.5145 29629.7560 -30.3445 27.3360
ENERGY: 1200000 3.7857 7.9798 4.6680 0.0000 -10718.6721 1507.6291 0.0000 0.0000 1767.9494 -7426.6601 301.7885 -9194.6094 -7443.2447 299.8977 712.9851 748.9326 30186.8305 41.2168 96.0917
ENERGY: 1500000 2.4407 13.4126 6.7661 0.0000 -10853.4629 1584.4684 0.0000 0.0000 1773.7937 -7472.5814 302.7862 -9246.3751 -7450.4797 299.4935 1244.8183 1304.0809 29983.3985 25.7567 81.4120
TCL: Exiting due to exit command.
