Info: SIMULATION PARAMETERS:
Info: TIMESTEP               2
Info: NUMBER OF STEPS        0
Info: STEPS PER CYCLE        10
Info: PERIODIC CELL BASIS 1  30.2998 0 0
Info: PERIODIC CELL BASIS 2  0 28.6044 0
Info: PERIODIC CELL BASIS 3  0 0 34.6507
Info: PERIODIC CELL CENTER   0 0 0
Info: WRAPPING WATERS AROUND PERIODIC BOUNDARIES ON OUTPUT.
Info: WRAPPING ALL CLUSTERS AROUND PERIODIC BOUNDARIES ON OUTPUT.
Info: FIRST LDB TIMESTEP     50
Info: LAST LDB TIMESTEP     -1
Info: HOM BACKGROUND SCALING 1
Info: PME BACKGROUND SCALING 1
Info: MIN ATOMS PER PATCH    40
Info: EMPTY PATCH LOAD       40 ATOMS
Info: VELOCITY FILE          mobley_1017962_equil.vel
Info: CENTER OF MASS MOVING INITIALLY? NO
Info: DIELECTRIC             1
Info: EXCLUDE                SCALED ONE-FOUR
Info: 1-4 ELECTROSTATICS SCALED BY 0.833333
Info: MODIFIED 1-4 VDW PARAMETERS WILL BE USED
Info: DCD FILENAME           mobley_1017962_prod.dcd
Info: DCD FREQUENCY          100000
Info: DCD FIRST STEP         100000
Info: DCD FILE WILL CONTAIN UNIT CELL DATA
Info: XST FILENAME           mobley_1017962_prod.xst
Info: XST FREQUENCY          100000
Info: NO VELOCITY DCD OUTPUT
Info: NO FORCE DCD OUTPUT
Info: OUTPUT FILENAME        mobley_1017962_prod
Info: BINARY OUTPUT FILES WILL BE USED
Info: RESTART FILENAME       mobley_1017962_prod.restart
Info: RESTART FREQUENCY      100000
Info: BINARY RESTART FILES WILL BE USED
Info: CUTOFF                 9
Info: PAIRLIST DISTANCE      11
Info: PAIRLIST SHRINK RATE   0.01
Info: PAIRLIST GROW RATE     0.01
Info: PAIRLIST TRIGGER       0.3
Info: PAIRLISTS PER CYCLE    2
Info: PAIRLISTS ENABLED
Info: MARGIN                 2
Info: HYDROGEN GROUP CUTOFF  2.5
Info: PATCH DIMENSION        15.5
Info: ENERGY OUTPUT STEPS    100000
Info: ENERGY EVALUATION STEPS    100000
Info: OUTPUT ENERGY PRECISION 4
Info: CROSSTERM ENERGY INCLUDED IN DIHEDRAL
Info: TIMING OUTPUT STEPS    1000000
Info: PRESSURE OUTPUT STEPS  100000
Info: ALCHEMICAL FEP ON
Info: FEP CURRENT LAMBDA VALUE     0
Info: FEP COMPARISON LAMBDA VALUE  0.05
Info: FEP INTRA-ALCHEMICAL NON-BONDED INTERACTIONS WILL BE RETAINED
Info: FEP INTRA-ALCHEMICAL BONDED INTERACTIONS WILL BE RETAINED
Info: FEP VDW SHIFTING COEFFICIENT 5
Info: FEP ELEC. ACTIVE FOR ANNIHILATED PARTICLES BETWEEN LAMBDA = 0 AND LAMBDA = 0.5
Info: FEP ELEC. ACTIVE FOR EXNIHILATED PARTICLES BETWEEN LAMBDA = 0.5 AND LAMBDA = 1
Info: FEP VDW ACTIVE FOR ANNIHILATED PARTICLES BETWEEN LAMBDA = 0 AND LAMBDA = 1
Info: FEP VDW ACTIVE FOR EXNIHILATED PARTICLES BETWEEN LAMBDA = 0 AND LAMBDA = 1
Info: FEP BOND ACTIVE FOR ANNIHILATED PARTICLES BETWEEN LAMBDA = 1 AND LAMBDA = 1
Info: FEP BOND ACTIVE FOR EXNIHILATED PARTICLES BETWEEN LAMBDA = 0 AND LAMBDA = 0
Info: LANGEVIN DYNAMICS ACTIVE
Info: LANGEVIN TEMPERATURE   300
Info: LANGEVIN USING BBK INTEGRATOR
Info: LANGEVIN DAMPING COEFFICIENT IS 1 INVERSE PS
Info: LANGEVIN DYNAMICS APPLIED TO HYDROGENS
Info: LANGEVIN PISTON PRESSURE CONTROL ACTIVE
Info:        TARGET PRESSURE IS 1.01325 BAR
Info:     OSCILLATION PERIOD IS 50 FS
Info:             DECAY TIME IS 25 FS
Info:     PISTON TEMPERATURE IS 300 K
Info:       PRESSURE CONTROL IS GROUP-BASED
Info:    INITIAL STRAIN RATE IS 0.00023253 0.00023253 0.00023253
Info:       CELL FLUCTUATION IS ISOTROPIC
Info: PARTICLE MESH EWALD (PME) ACTIVE
Info: PME TOLERANCE               1e-06
Info: PME EWALD COEFFICIENT       0.348832
Info: PME INTERPOLATION ORDER     4
Info: PME GRID DIMENSIONS         32 32 36
Info: PME MAXIMUM GRID SPACING    1
Info: PME CALCULATION WILL BE PERFORMED ON GPU
Info: FULL ELECTROSTATIC EVALUATION FREQUENCY      2
Info: USING VERLET I (r-RESPA) MTS SCHEME.
Info: C1 SPLITTING OF LONG RANGE ELECTROSTATICS
Info: PLACING ATOMS IN PATCHES BY HYDROGEN GROUPS
Info: RIGID BONDS TO HYDROGEN : ALL
Info:         ERROR TOLERANCE : 1e-08
Info:          MAX ITERATIONS : 100
Info: RIGID WATER USING SETTLE ALGORITHM
Info: RANDOM NUMBER SEED     1743977600
Info: USE HYDROGEN BONDS?    NO
Info: Using AMBER format force field!
Info: AMBER PARM FILE        mobley_1017962.prmtop
Info: COORDINATE PDB         mobley_1017962.pdb
Info: Exclusions will be read from PARM file!
Info: SCNB (VDW SCALING)     2
Info: USING ARITHMETIC MEAN TO COMBINE L-J SIGMA PARAMETERS
Info: BINARY COORDINATES     mobley_1017962_equil.coor
Info: SUMMARY OF PARAMETERS:
Info: 9 BONDS
Info: 11 ANGLES
Info:   11 HARMONIC
Info:   0 COSINE-BASED
Info: 16 DIHEDRAL
Info: 0 IMPROPER
Info: 0 CROSSTERM
Info: 0 VDW
Info: 36 VDW_PAIRS
Info: 0 NBTHOLE_PAIRS
Info: To read alchdata from file: mobley_1017962.pdb
Info: To read alchflag data from column: 5
Info: STRUCTURE SUMMARY:
Info: 2942 ATOMS
Info: 2941 BONDS
Info: 40 ANGLES
Info: 59 DIHEDRALS
Info: 0 IMPROPERS
Info: 0 CROSSTERMS
Info: 3028 EXCLUSIONS
Info: 2933 RIGID BONDS
Info: ALCH: 0 ATOMS TO DISAPPEAR IN FINAL STATE
Info: ALCH: 23 ATOMS TO APPEAR IN FINAL STATE
Info: 5893 DEGREES OF FREEDOM
Info: 982 HYDROGEN GROUPS
Info: 4 ATOMS IN LARGEST HYDROGEN GROUP
Info: 982 MIGRATION GROUPS
Info: 4 ATOMS IN LARGEST MIGRATION GROUP
Info: TOTAL MASS = 17659.8 amu
Info: TOTAL CHARGE = -0.000100002 e
Info: MASS DENSITY = 0.976468 g/cm^3
Info: ATOM DENSITY = 0.0979618 atoms/A^3
Info: ADDED 0 IMPLICIT EXCLUSIONS
Info: NONBONDED TABLE R-SQUARED SPACING: 0.0625
Info: NONBONDED TABLE SIZE: 705 POINTS
Info: REMOVING COM VELOCITY 0.109188 -0.214126 0.193213
Info: Use 3D box decompostion in PME FFT.
Info: Updated CUDA force table with 4096 elements.
Info: Updated CUDA LJ table with 8 x 8 elements.
Info: Found 26 unique exclusion lists needing 80 bytes
TCL: Running for 1500000 steps
ETITLE: TS BOND ANGLE DIHED IMPRP ELECT VDW BOUNDARY MISC KINETIC TOTAL TEMP POTENTIAL TOTALAVG TEMPAVG PRESSURE GPRESSURE VOLUME PRESSAVG GPRESSAVG
ENERGY: 0 0.5817 7.6465 3.8917 0.0000 -10711.3915 1487.3122 0.0000 0.0000 1752.4257 -7459.5336 299.2909 -9211.9593 -7459.5336 299.2909 487.9068 556.5430 30032.1031 487.9068 556.5430
ENERGY: 300000 2.4002 10.4872 4.0243 0.0000 -10700.2466 1454.0347 0.0000 0.0000 1810.0038 -7419.2964 309.1245 -9229.3002 -7460.0416 302.4691 169.8944 216.6434 30142.9844 71.3865 149.2877
ENERGY: 600000 6.4933 7.0462 5.9610 0.0000 -10620.5841 1413.7062 0.0000 0.0000 1755.6149 -7431.7625 299.8356 -9187.3773 -7440.0502 303.0800 96.3403 163.3357 29763.6502 -24.0835 45.0123
ENERGY: 900000 2.3377 10.3660 7.3815 0.0000 -10645.2623 1465.3957 0.0000 0.0000 1727.6682 -7432.1131 295.0627 -9159.7813 -7453.2604 301.3603 465.4531 552.2306 30044.7442 27.8279 94.9841
ENERGY: 1200000 2.4271 5.1172 3.0302 0.0000 -10529.7440 1400.9153 0.0000 0.0000 1803.5116 -7314.7426 308.0157 -9118.2542 -7444.4798 301.9846 -370.1769 -288.8852 30853.7384 -59.2906 8.5046
ENERGY: 1500000 3.6761 10.8747 7.0146 0.0000 -10693.2117 1447.5685 0.0000 0.0000 1807.6730 -7416.4047 308.7264 -9224.0777 -7442.3616 302.3205 79.7753 137.4001 29631.8563 46.6068 114.0281
TCL: Running FEP window   2: Lambda1 0.05   Lambda2 0.1    [dLambda 0.05  ]
TCL: Setting parameter firsttimestep to 0
TCL: Setting parameter alchLambda to 0.05
Info: NONBONDED TABLE R-SQUARED SPACING: 0.0625
Info: NONBONDED TABLE SIZE: 705 POINTS
TCL: Setting parameter alchLambda2 to 0.1
Info: NONBONDED TABLE R-SQUARED SPACING: 0.0625
Info: NONBONDED TABLE SIZE: 705 POINTS
TCL: Running for 1500000 steps
ETITLE: TS BOND ANGLE DIHED IMPRP ELECT VDW BOUNDARY MISC KINETIC TOTAL TEMP POTENTIAL TOTALAVG TEMPAVG PRESSURE GPRESSURE VOLUME PRESSAVG GPRESSAVG
ENERGY: 0 3.6761 10.8747 7.0146 0.0000 -10693.2126 1453.6961 0.0000 0.0000 1806.8071 -7411.1440 308.5785 -9217.9511 -7411.1440 308.5785 68.4991 146.5852 29631.8563 68.4991 146.5852
ENERGY: 300000 2.0083 6.3311 4.2525 0.0000 -10788.3025 1576.8840 0.0000 0.0000 1740.1382 -7458.6884 297.1924 -9198.8265 -7447.5187 300.3819 1180.0609 1228.9597 29941.3847 105.2566 166.1276
ENERGY: 600000 1.8057 12.7961 4.8925 0.0000 -10613.0117 1436.8792 0.0000 0.0000 1778.0108 -7378.6275 303.6605 -9156.6382 -7416.5729 302.2682 179.1066 184.7294 30173.4352 152.6171 207.9981
ENERGY: 900000 1.7761 7.8969 5.3204 0.0000 -10557.8769 1354.8672 0.0000 0.0000 1771.9665 -7416.0497 302.6282 -9188.0162 -7413.2090 303.2529 -774.8299 -669.9473 30242.9718 -25.5839 33.7422
ENERGY: 1200000 1.6053 11.1848 4.9777 0.0000 -10593.4011 1456.2075 0.0000 0.0000 1706.3949 -7413.0309 291.4295 -9119.4258 -7418.8123 302.8210 414.4751 539.8547 29710.4478 -74.0440 -10.1103
ENERGY: 1500000 3.9797 14.6661 3.6372 0.0000 -10690.4133 1465.5966 0.0000 0.0000 1749.4449 -7453.0888 298.7819 -9202.5338 -7418.6305 302.6556 434.4091 520.4885 29780.2828 -27.7623 35.6147
TCL: Running FEP window   3: Lambda1 0.1    Lambda2 0.15000000000000002 [dLambda 0.05000000000000002]
TCL: Setting parameter firsttimestep to 0
TCL: Setting parameter alchLambda to 0.1
Info: NONBONDED TABLE R-SQUARED SPACING: 0.0625
Info: NONBONDED TABLE SIZE: 705 POINTS
TCL: Setting parameter alchLambda2 to 0.15000000000000002
Info: NONBONDED TABLE R-SQUARED SPACING: 0.0625
Info: NONBONDED TABLE SIZE: 705 POINTS
TCL: Running for 1500000 steps
ETITLE: TS BOND ANGLE DIHED IMPRP ELECT VDW BOUNDARY MISC KINETIC TOTAL TEMP POTENTIAL TOTALAVG TEMPAVG PRESSURE GPRESSURE VOLUME PRESSAVG GPRESSAVG
ENERGY: 0 3.9797 14.6661 3.6372 0.0000 -10690.4138 1467.2948 0.0000 0.0000 1748.5722 -7452.2638 298.6328 -9200.8361 -7452.2638 298.6328 444.0962 530.0430 29780.2828 444.0962 530.0430
ENERGY: 300000 3.5191 12.1930 5.2345 0.0000 -10716.4985 1478.9409 0.0000 0.0000 1766.0899 -7450.5211 301.6246 -9216.6110 -7458.0008 300.9585 121.5411 173.5693 29807.3456 229.5828 273.6592
ENERGY: 600000 1.5530 14.1617 5.7778 0.0000 -10650.2564 1447.1333 0.0000 0.0000 1778.8563 -7402.7742 303.8049 -9181.6305 -7420.3884 301.3385 52.3793 31.0467 30446.2983 73.6823 122.3392
ENERGY: 900000 1.8870 10.7276 3.6868 0.0000 -10697.6173 1483.9450 0.0000 0.0000 1717.4348 -7479.9361 293.3150 -9197.3709 -7413.4953 301.1377 -40.9712 83.0193 30379.3987 22.5552 89.9056
ENERGY: 1200000 3.3926 9.9240 3.0291 0.0000 -10714.9957 1481.9534 0.0000 0.0000 1826.8111 -7389.8854 311.9950 -9216.6965 -7418.3427 301.6814 161.7284 224.1710 30298.6591 119.9685 189.0089
ENERGY: 1500000 2.7380 9.7194 3.9709 0.0000 -10591.2315 1432.6693 0.0000 0.0000 1716.8165 -7425.3173 293.2094 -9142.1339 -7413.4370 301.6805 179.7996 229.9159 30203.4939 129.0975 196.4899
TCL: Running FEP window   4: Lambda1 0.15000000000000002 Lambda2 0.2    [dLambda 0.04999999999999999]
TCL: Setting parameter firsttimestep to 0
TCL: Setting parameter alchLambda to 0.15000000000000002
Info: NONBONDED TABLE R-SQUARED SPACING: 0.0625
Info: NONBONDED TABLE SIZE: 705 POINTS
TCL: Setting parameter alchLambda2 to 0.2
Info: NONBONDED TABLE R-SQUARED SPACING: 0.0625
Info: NONBONDED TABLE SIZE: 705 POINTS
TCL: Running for 1500000 steps
ETITLE: TS BOND ANGLE DIHED IMPRP ELECT VDW BOUNDARY MISC KINETIC TOTAL TEMP POTENTIAL TOTALAVG TEMPAVG PRESSURE GPRESSURE VOLUME PRESSAVG GPRESSAVG
ENERGY: 0 2.7380 9.7194 3.9709 0.0000 -10591.2305 1432.4293 0.0000 0.0000 1715.9468 -7426.4262 293.0608 -9142.3730 -7426.4262 293.0608 125.2047 228.7355 30203.4939 125.2047 228.7355
ENERGY: 300000 5.8157 13.4206 2.8782 0.0000 -10437.9033 1346.4285 0.0000 0.0000 1810.3553 -7259.0050 309.1845 -9069.3603 -7384.9378 299.8449 -269.3671 -250.1606 30072.7074 -175.4627 -109.6936
ENERGY: 600000 0.6785 11.9027 5.8866 0.0000 -10761.9929 1542.4772 0.0000 0.0000 1733.2681 -7467.7798 296.0191 -9201.0479 -7405.4388 299.8457 820.5886 964.9000 29875.3301 96.9297 162.3122
ENERGY: 900000 2.0499 8.5597 3.8120 0.0000 -10730.9745 1416.6829 0.0000 0.0000 1703.3196 -7596.5504 290.9043 -9299.8700 -7435.5214 297.5965 -426.6319 -406.9501 29953.0901 -69.5324 -7.1169
ENERGY: 1200000 1.7401 12.2856 4.1947 0.0000 -10644.0363 1404.2993 0.0000 0.0000 1720.8862 -7500.6303 293.9044 -9221.5166 -7442.3915 297.6082 -24.4164 -13.4754 29546.5364 -95.7548 -39.0982
ENERGY: 1500000 3.0278 8.1983 5.3668 0.0000 -10655.4060 1443.5247 0.0000 0.0000 1733.4654 -7461.8231 296.0528 -9195.2885 -7443.4484 297.9075 326.8719 378.6719 29691.7094 -5.8216 53.3385
TCL: Running FEP window   5: Lambda1 0.2    Lambda2 0.25   [dLambda 0.04999999999999999]
TCL: Setting parameter firsttimestep to 0
TCL: Setting parameter alchLambda to 0.2
Info: NONBONDED TABLE R-SQUARED SPACING: 0.0625
Info: NONBONDED TABLE SIZE: 705 POINTS
TCL: Setting parameter alchLambda2 to 0.25
Info: NONBONDED TABLE R-SQUARED SPACING: 0.0625
Info: NONBONDED TABLE SIZE: 705 POINTS
TCL: Running for 1500000 steps
ETITLE: TS BOND ANGLE DIHED IMPRP ELECT VDW BOUNDARY MISC KINETIC TOTAL TEMP POTENTIAL TOTALAVG TEMPAVG PRESSURE GPRESSURE VOLUME PRESSAVG GPRESSAVG
ENERGY: 0 3.0278 8.1983 5.3668 0.0000 -10655.4059 1446.4618 0.0000 0.0000 1732.5967 -7459.7545 295.9044 -9192.3512 -7459.7545 295.9044 300.2858 390.8742 29691.7094 300.2858 390.8742
ENERGY: 300000 2.4862 10.1336 5.2189 0.0000 -10797.6751 1471.4730 0.0000 0.0000 1755.9301 -7552.4333 299.8894 -9308.3634 -7425.4139 301.4213 167.0387 231.1470 29517.2028 58.2827 133.5807
ENERGY: 600000 1.4092 11.7612 6.2578 0.0000 -10405.3381 1343.2212 0.0000 0.0000 1746.9478 -7295.7409 298.3554 -9042.6887 -7411.5355 299.1295 -425.3091 -355.4999 30465.9409 -53.8342 17.6405
ENERGY: 900000 1.7153 12.1592 6.0639 0.0000 -10560.2048 1342.1075 0.0000 0.0000 1739.6150 -7458.5438 297.1030 -9198.1588 -7408.7228 298.9527 -673.1656 -636.7935 30058.3436 0.3307 51.6981
ENERGY: 1200000 6.7496 10.4768 4.1534 0.0000 -10482.2486 1371.4242 0.0000 0.0000 1770.0904 -7319.3541 302.3078 -9089.4445 -7407.3791 299.9736 -300.1049 -207.1808 30214.6754 10.9932 68.2707
ENERGY: 1500000 6.7296 15.3370 5.2323 0.0000 -10623.2398 1437.7056 0.0000 0.0000 1691.8515 -7466.3837 288.9457 -9158.2352 -7418.1416 299.7750 11.1315 19.6930 29939.4969 53.5772 104.2372
TCL: Running FEP window   6: Lambda1 0.25   Lambda2 0.3    [dLambda 0.04999999999999999]
TCL: Setting parameter firsttimestep to 0
TCL: Setting parameter alchLambda to 0.25
Info: NONBONDED TABLE R-SQUARED SPACING: 0.0625
Info: NONBONDED TABLE SIZE: 705 POINTS
TCL: Setting parameter alchLambda2 to 0.3
Info: NONBONDED TABLE R-SQUARED SPACING: 0.0625
Info: NONBONDED TABLE SIZE: 705 POINTS
TCL: Running for 1500000 steps
ETITLE: TS BOND ANGLE DIHED IMPRP ELECT VDW BOUNDARY MISC KINETIC TOTAL TEMP POTENTIAL TOTALAVG TEMPAVG PRESSURE GPRESSURE VOLUME PRESSAVG GPRESSAVG
ENERGY: 0 6.7296 15.3370 5.2323 0.0000 -10623.2375 1437.6072 0.0000 0.0000 1691.0099 -7467.3213 288.8019 -9158.3313 -7467.3213 288.8019 -52.3324 26.2449 29939.4969 -52.3324 26.2449
ENERGY: 300000 1.9558 8.7495 4.6427 0.0000 -10532.6317 1410.9488 0.0000 0.0000 1737.4874 -7368.8474 296.7397 -9106.3349 -7411.0971 297.2235 134.3039 224.3606 30123.0777 232.3139 299.7178
ENERGY: 600000 1.9202 8.1149 4.2242 0.0000 -10542.1900 1372.8014 0.0000 0.0000 1783.2292 -7371.9001 304.5518 -9155.1293 -7433.7871 296.9053 -203.5992 -115.2882 29809.8818 -112.9551 -37.2871
ENERGY: 900000 2.4879 10.8707 5.2779 0.0000 -10618.8654 1375.9609 0.0000 0.0000 1778.2223 -7446.0457 303.6966 -9224.2680 -7428.1005 299.8578 -490.6697 -369.3962 29964.7814 47.7815 135.9689
ENERGY: 1200000 1.5846 12.7738 4.9311 0.0000 -10501.9340 1314.1630 0.0000 0.0000 1799.8445 -7368.6369 307.3894 -9168.4814 -7428.7895 300.3683 -1055.4263 -995.5951 30508.3883 -66.8708 11.9349
ENERGY: 1500000 1.5436 11.5353 3.4483 0.0000 -10534.1207 1396.0654 0.0000 0.0000 1833.5565 -7287.9716 313.1470 -9121.5281 -7426.1059 301.0241 176.0790 196.1851 30147.7121 -22.8692 53.0968
TCL: Running FEP window   7: Lambda1 0.3    Lambda2 0.35   [dLambda 0.04999999999999999]
TCL: Setting parameter firsttimestep to 0
TCL: Setting parameter alchLambda to 0.3
Info: NONBONDED TABLE R-SQUARED SPACING: 0.0625
Info: NONBONDED TABLE SIZE: 705 POINTS
TCL: Setting parameter alchLambda2 to 0.35
Info: NONBONDED TABLE R-SQUARED SPACING: 0.0625
Info: NONBONDED TABLE SIZE: 705 POINTS
TCL: Running for 1500000 steps
ETITLE: TS BOND ANGLE DIHED IMPRP ELECT VDW BOUNDARY MISC KINETIC TOTAL TEMP POTENTIAL TOTALAVG TEMPAVG PRESSURE GPRESSURE VOLUME PRESSAVG GPRESSAVG
ENERGY: 0 1.5436 11.5353 3.4483 0.0000 -10534.1179 1395.4985 0.0000 0.0000 1832.6657 -7289.4266 312.9948 -9122.0922 -7289.4266 312.9948 117.8898 196.3689 30147.7121 117.8898 196.3689
ENERGY: 300000 0.9971 9.1955 3.9605 0.0000 -10699.0987 1440.2099 0.0000 0.0000 1750.5854 -7494.1503 298.9766 -9244.7357 -7420.5956 300.7900 -169.3506 -134.5540 30061.4452 -93.8241 -29.0181
ENERGY: 600000 0.6437 14.9565 7.2667 0.0000 -10736.7802 1481.9726 0.0000 0.0000 1764.0404 -7467.9002 301.2746 -9231.9406 -7440.5755 299.1676 617.3045 705.2499 29434.8052 -3.3856 63.7955
ENERGY: 900000 2.1403 8.6901 5.7985 0.0000 -10699.8268 1460.2693 0.0000 0.0000 1764.7522 -7458.1763 301.3961 -9222.9286 -7457.5904 298.4331 168.4812 194.1746 30145.8367 12.8493 73.6986
ENERGY: 1200000 0.9897 10.9349 9.0155 0.0000 -10535.1968 1385.8463 0.0000 0.0000 1708.3336 -7420.0768 291.7606 -9128.4104 -7440.3044 298.6725 -84.7255 -12.5061 30035.4889 1.7071 67.3086
ENERGY: 1500000 1.6711 11.2770 2.9003 0.0000 -10677.8143 1453.2024 0.0000 0.0000 1757.9145 -7450.8489 300.2283 -9208.7634 -7443.7637 299.2512 98.4253 201.2593 30062.7888 86.2172 149.2173
TCL: Running FEP window   8: Lambda1 0.35   Lambda2 0.39999999999999997 [dLambda 0.04999999999999999]
TCL: Setting parameter firsttimestep to 0
TCL: Setting parameter alchLambda to 0.35
Info: NONBONDED TABLE R-SQUARED SPACING: 0.0625
Info: NONBONDED TABLE SIZE: 705 POINTS
TCL: Setting parameter alchLambda2 to 0.39999999999999997
Info: NONBONDED TABLE R-SQUARED SPACING: 0.0625
Info: NONBONDED TABLE SIZE: 705 POINTS
TCL: Running for 1500000 steps
ETITLE: TS BOND ANGLE DIHED IMPRP ELECT VDW BOUNDARY MISC KINETIC TOTAL TEMP POTENTIAL TOTALAVG TEMPAVG PRESSURE GPRESSURE VOLUME PRESSAVG GPRESSAVG
ENERGY: 0 1.6711 11.2770 2.9003 0.0000 -10677.8172 1454.1304 0.0000 0.0000 1757.0460 -7450.7923 300.0800 -9207.8383 -7450.7923 300.0800 126.2276 210.5199 30062.7888 126.2276 210.5199
ENERGY: 300000 3.8089 11.7242 6.1996 0.0000 -10536.9927 1367.0317 0.0000 0.0000 1776.5395 -7371.6887 303.4092 -9148.2282 -7407.0455 303.9782 -456.8525 -426.1101 30219.6564 -20.6307 23.5837
ENERGY: 600000 3.1331 5.4138 3.5025 0.0000 -10796.6733 1473.4914 0.0000 0.0000 1731.6547 -7579.4778 295.7435 -9311.1325 -7437.2305 301.0830 100.2215 151.7796 30116.5362 -62.6036 -10.7852
ENERGY: 900000 5.1100 10.7936 6.3098 0.0000 -10692.9108 1422.7239 0.0000 0.0000 1823.1988 -7424.7747 311.3780 -9247.9735 -7437.8624 301.3423 -398.9193 -325.7568 30407.9247 -88.6781 -31.9719
ENERGY: 1200000 2.2750 8.9580 7.3417 0.0000 -10606.8231 1460.2489 0.0000 0.0000 1780.7048 -7347.2948 304.1206 -9127.9996 -7429.8772 301.2598 301.9778 396.6908 30099.2541 59.4619 124.8594
ENERGY: 1500000 3.1624 10.6479 6.1930 0.0000 -10667.8993 1380.9514 0.0000 0.0000 1813.5915 -7453.3532 309.7372 -9266.9447 -7425.0351 301.9927 -579.8280 -460.5209 30023.8904 71.8429 147.1537
TCL: Running FEP window   9: Lambda1 0.39999999999999997 Lambda2 0.44999999999999996 [dLambda 0.04999999999999999]
TCL: Setting parameter firsttimestep to 0
TCL: Setting parameter alchLambda to 0.39999999999999997
Info: NONBONDED TABLE R-SQUARED SPACING: 0.0625
Info: NONBONDED TABLE SIZE: 705 POINTS
TCL: Setting parameter alchLambda2 to 0.44999999999999996
Info: NONBONDED TABLE R-SQUARED SPACING: 0.0625
Info: NONBONDED TABLE SIZE: 705 POINTS
TCL: Running for 1500000 steps
ETITLE: TS BOND ANGLE DIHED IMPRP ELECT VDW BOUNDARY MISC KINETIC TOTAL TEMP POTENTIAL TOTALAVG TEMPAVG PRESSURE GPRESSURE VOLUME PRESSAVG GPRESSAVG
ENERGY: 0 3.1624 10.6479 6.1930 0.0000 -10667.8984 1380.8006 0.0000 0.0000 1812.7358 -7454.3589 309.5911 -9267.0946 -7454.3589 309.5911 -551.0166 -455.4017 30023.8904 -551.0166 -455.4017
ENERGY: 300000 2.1243 6.8638 3.7389 0.0000 -10778.8173 1543.4620 0.0000 0.0000 1776.3853 -7446.2431 303.3829 -9222.6284 -7434.3473 306.1105 778.4894 849.3341 30016.1065 227.3476 289.2715
ENERGY: 600000 2.9008 13.8811 4.4324 0.0000 -10612.3788 1397.6916 0.0000 0.0000 1781.0486 -7412.4242 304.1793 -9193.4728 -7442.8372 302.7358 -327.7855 -255.8740 29882.6728 39.5848 113.1469
ENERGY: 900000 3.7951 10.0567 3.9673 0.0000 -10505.1991 1307.1548 0.0000 0.0000 1748.3260 -7431.8992 298.5908 -9180.2252 -7427.8470 302.1735 -800.6724 -723.0013 30255.6626 -19.4745 46.6754
ENERGY: 1200000 2.3386 5.6471 4.2113 0.0000 -10747.2936 1478.0248 0.0000 0.0000 1758.5202 -7498.5517 300.3318 -9257.0718 -7438.6630 301.2583 82.2953 122.5261 29968.4330 -105.6872 -43.9581
ENERGY: 1500000 2.7409 8.0144 7.9725 0.0000 -10731.9364 1471.0002 0.0000 0.0000 1811.4676 -7430.7409 309.3745 -9242.2085 -7429.9670 301.7290 338.4281 386.7688 29769.4627 -129.7105 -67.3955
TCL: Running FEP window  10: Lambda1 0.44999999999999996 Lambda2 0.49999999999999994 [dLambda 0.04999999999999999]
TCL: Setting parameter firsttimestep to 0
TCL: Setting parameter alchLambda to 0.44999999999999996
Info: NONBONDED TABLE R-SQUARED SPACING: 0.0625
Info: NONBONDED TABLE SIZE: 705 POINTS
TCL: Setting parameter alchLambda2 to 0.49999999999999994
Info: NONBONDED TABLE R-SQUARED SPACING: 0.0625
Info: NONBONDED TABLE SIZE: 705 POINTS
TCL: Running for 1500000 steps
ETITLE: TS BOND ANGLE DIHED IMPRP ELECT VDW BOUNDARY MISC KINETIC TOTAL TEMP POTENTIAL TOTALAVG TEMPAVG PRESSURE GPRESSURE VOLUME PRESSAVG GPRESSAVG
ENERGY: 0 2.7409 8.0144 7.9725 0.0000 -10731.9373 1471.4198 0.0000 0.0000 1810.5765 -7431.2133 309.2223 -9241.7898 -7431.2133 309.2223 293.4777 396.5140 29769.4627 293.4777 396.5140
ENERGY: 300000 2.6990 8.4828 6.7121 0.0000 -10584.8489 1376.4046 0.0000 0.0000 1703.9865 -7486.5639 291.0182 -9190.5504 -7436.1717 301.1901 -760.8176 -657.9106 30633.3731 -395.2229 -306.2767
ENERGY: 600000 2.5547 7.7092 4.5400 0.0000 -10656.7908 1427.5976 0.0000 0.0000 1798.8448 -7415.5446 307.2187 -9214.3894 -7425.0741 301.8413 5.3709 74.9233 30114.2004 -500.0424 -411.7435
ENERGY: 900000 3.4455 11.7568 2.6136 0.0000 -10700.7962 1465.9519 0.0000 0.0000 1837.2941 -7379.7344 313.7853 -9217.0285 -7423.2366 303.6058 52.6302 131.8343 30432.1494 -344.1104 -264.7954
ENERGY: 1200000 2.6915 7.3591 3.8036 0.0000 -10643.6039 1444.5379 0.0000 0.0000 1781.7585 -7403.4533 304.3006 -9185.2118 -7433.3129 302.6283 224.8171 297.2943 29944.5549 -269.7255 -192.9094
ENERGY: 1500000 2.7590 10.3538 3.3550 0.0000 -10626.5766 1350.0497 0.0000 0.0000 1754.4182 -7505.6410 299.6312 -9260.0592 -7434.6711 302.6607 -828.9999 -772.6984 30171.7156 -237.9218 -164.2144
TCL: Running FEP window  11: Lambda1 0.49999999999999994 Lambda2 0.5499999999999999 [dLambda 0.04999999999999999]
TCL: Setting parameter firsttimestep to 0
TCL: Setting parameter alchLambda to 0.49999999999999994
Info: NONBONDED TABLE R-SQUARED SPACING: 0.0625
Info: NONBONDED TABLE SIZE: 705 POINTS
TCL: Setting parameter alchLambda2 to 0.5499999999999999
Info: NONBONDED TABLE R-SQUARED SPACING: 0.0625
Info: NONBONDED TABLE SIZE: 705 POINTS
TCL: Running for 1500000 steps
ETITLE: TS BOND ANGLE DIHED IMPRP ELECT VDW BOUNDARY MISC KINETIC TOTAL TEMP POTENTIAL TOTALAVG TEMPAVG PRESSURE GPRESSURE VOLUME PRESSAVG GPRESSAVG
ENERGY: 0 2.7590 10.3538 3.3550 0.0000 -10626.5756 1349.6841 0.0000 0.0000 1753.5399 -7506.8839 299.4812 -9260.4237 -7506.8839 299.4812 -841.3190 -767.8118 30171.7156 -841.3190 -767.8118
ENERGY: 300000 4.2011 7.2369 3.6593 0.0000 -10638.5557 1476.0053 0.0000 0.0000 1725.4196 -7422.0336 294.6786 -9147.4531 -7453.2829 297.7353 536.7420 621.3208 30008.2097 13.0118 66.1249
ENERGY: 600000 1.5434 7.5438 4.8468 0.0000 -10590.6854 1362.9358 0.0000 0.0000 1767.4405 -7446.3752 301.8553 -9213.8156 -7438.0758 298.5053 -601.5088 -509.6188 30142.1626 -224.0642 -163.2756
ENERGY: 900000 2.4230 13.2999 3.6074 0.0000 -10736.9626 1504.2736 0.0000 0.0000 1802.1737 -7411.1849 307.7872 -9213.3587 -7434.8170 299.0122 578.9996 679.2976 30165.4469 -34.3375 25.0172
ENERGY: 1200000 3.1067 9.9562 3.4354 0.0000 -10666.3377 1421.3452 0.0000 0.0000 1709.8462 -7518.6479 292.0189 -9228.4942 -7451.6508 297.6901 -197.2489 -174.3867 30072.0213 -41.2502 10.2249
ENERGY: 1500000 1.5958 11.3727 6.6107 0.0000 -10626.4949 1398.7656 0.0000 0.0000 1714.9503 -7493.1998 292.8906 -9208.1500 -7448.2232 298.5849 -339.2348 -393.0543 30395.0665 -56.3385 -7.4941
TCL: Running FEP window  12: Lambda1 0.5499999999999999 Lambda2 0.6    [dLambda 0.050000000000000044]
TCL: Setting parameter firsttimestep to 0
TCL: Setting parameter alchLambda to 0.5499999999999999
Info: NONBONDED TABLE R-SQUARED SPACING: 0.0625
Info: NONBONDED TABLE SIZE: 705 POINTS
TCL: Setting parameter alchLambda2 to 0.6
Info: NONBONDED TABLE R-SQUARED SPACING: 0.0625
Info: NONBONDED TABLE SIZE: 705 POINTS
TCL: Running for 1500000 steps
ETITLE: TS BOND ANGLE DIHED IMPRP ELECT VDW BOUNDARY MISC KINETIC TOTAL TEMP POTENTIAL TOTALAVG TEMPAVG PRESSURE GPRESSURE VOLUME PRESSAVG GPRESSAVG
ENERGY: 0 1.5958 11.3727 6.6107 0.0000 -10626.9989 1400.0498 0.0000 0.0000 1714.0791 -7493.2907 292.7418 -9207.3698 -7493.2907 292.7418 -440.8861 -370.6669 30395.0665 -440.8861 -370.6669
ENERGY: 300000 2.2546 9.8924 2.9094 0.0000 -10551.9875 1334.2223 0.0000 0.0000 1770.2125 -7432.4963 302.3287 -9202.7088 -7438.4258 301.0917 -741.5562 -712.8921 30548.6703 -524.9001 -463.5920
ENERGY: 600000 3.6641 9.0942 2.8865 0.0000 -10843.8244 1531.6491 0.0000 0.0000 1781.4167 -7515.1138 304.2422 -9296.5305 -7457.9088 299.9097 335.4895 349.1388 30103.9858 -315.5695 -262.6062
ENERGY: 900000 3.1745 11.1382 3.7821 0.0000 -10804.5296 1502.1224 0.0000 0.0000 1761.3199 -7522.9924 300.8099 -9284.3123 -7463.7334 300.4868 207.0736 301.9452 30387.1086 -180.4479 -118.7818
ENERGY: 1200000 2.1309 10.2805 4.2328 0.0000 -10571.7229 1420.7763 0.0000 0.0000 1772.0738 -7362.2286 302.6466 -9134.3024 -7458.2732 299.4509 364.7785 379.7749 29823.5714 -145.9149 -85.4116
ENERGY: 1500000 0.9103 6.4678 3.3392 0.0000 -10668.6810 1424.5992 0.0000 0.0000 1730.5744 -7502.7902 295.5590 -9233.3646 -7460.8622 299.6079 -534.7298 -350.6659 30603.4536 -180.9035 -112.2245
TCL: Running FEP window  13: Lambda1 0.6    Lambda2 0.65   [dLambda 0.050000000000000044]
TCL: Setting parameter firsttimestep to 0
TCL: Setting parameter alchLambda to 0.6
Info: NONBONDED TABLE R-SQUARED SPACING: 0.0625
Info: NONBONDED TABLE SIZE: 705 POINTS
TCL: Setting parameter alchLambda2 to 0.65
Info: NONBONDED TABLE R-SQUARED SPACING: 0.0625
Info: NONBONDED TABLE SIZE: 705 POINTS
TCL: Running for 1500000 steps
ETITLE: TS BOND ANGLE DIHED IMPRP ELECT VDW BOUNDARY MISC KINETIC TOTAL TEMP POTENTIAL TOTALAVG TEMPAVG PRESSURE GPRESSURE VOLUME PRESSAVG GPRESSAVG
ENERGY: 0 0.9103 6.4678 3.3392 0.0000 -10668.5938 1425.2123 0.0000 0.0000 1729.7021 -7502.9622 295.4100 -9232.6643 -7502.9622 295.4100 -429.1364 -337.8224 30603.4536 -429.1364 -337.8224
ENERGY: 300000 2.1301 9.3932 4.7519 0.0000 -10792.8212 1562.2475 0.0000 0.0000 1746.9465 -7467.3520 298.3551 -9214.2985 -7472.1894 296.2928 1281.2289 1359.3492 29582.8831 107.0849 191.7987
ENERGY: 600000 0.9367 12.5054 3.0601 0.0000 -10564.0217 1375.9437 0.0000 0.0000 1802.9962 -7368.5796 307.9277 -9171.5757 -7463.9362 298.9370 -238.8214 -176.1978 30270.3446 -1.5151 58.9896
ENERGY: 900000 1.0032 9.8278 6.1736 0.0000 -10651.8759 1455.7109 0.0000 0.0000 1762.8000 -7416.3605 301.0627 -9179.1605 -7452.8111 300.5280 441.9800 504.9287 29832.8206 -68.6861 -5.1119
ENERGY: 1200000 3.7737 11.3257 4.6225 0.0000 -10697.3414 1445.0872 0.0000 0.0000 1761.9042 -7470.6281 300.9097 -9232.5323 -7453.3289 300.3310 -264.1781 -227.0717 30719.6132 -151.6130 -88.5021
ENERGY: 1500000 8.6549 10.6858 4.3545 0.0000 -10521.0723 1361.9412 0.0000 0.0000 1707.1526 -7428.2832 291.5589 -9135.4359 -7448.3248 299.2051 -686.5221 -598.0346 30317.0062 -211.2611 -144.4208
TCL: Running FEP window  14: Lambda1 0.65   Lambda2 0.7000000000000001 [dLambda 0.050000000000000044]
TCL: Setting parameter firsttimestep to 0
TCL: Setting parameter alchLambda to 0.65
Info: NONBONDED TABLE R-SQUARED SPACING: 0.0625
Info: NONBONDED TABLE SIZE: 705 POINTS
TCL: Setting parameter alchLambda2 to 0.7000000000000001
Info: NONBONDED TABLE R-SQUARED SPACING: 0.0625
Info: NONBONDED TABLE SIZE: 705 POINTS
TCL: Running for 1500000 steps
ETITLE: TS BOND ANGLE DIHED IMPRP ELECT VDW BOUNDARY MISC KINETIC TOTAL TEMP POTENTIAL TOTALAVG TEMPAVG PRESSURE GPRESSURE VOLUME PRESSAVG GPRESSAVG
ENERGY: 0 8.6549 10.6858 4.3545 0.0000 -10521.0242 1361.7323 0.0000 0.0000 1706.2693 -7429.3274 291.4080 -9135.5967 -7429.3274 291.4080 -664.6651 -592.3262 30317.0062 -664.6651 -592.3262
ENERGY: 300000 3.7911 6.8782 6.3313 0.0000 -10628.6450 1388.5635 0.0000 0.0000 1776.5009 -7446.5801 303.4027 -9223.0810 -7368.4275 300.1037 -591.0481 -500.2574 30375.7977 -390.6177 -302.0535
ENERGY: 600000 2.9539 11.9360 4.3278 0.0000 -10645.4694 1374.8940 0.0000 0.0000 1706.4817 -7544.8761 291.4443 -9251.3577 -7402.8514 299.4671 -771.1287 -750.2734 30521.6374 -194.3604 -110.7930
ENERGY: 900000 3.4297 14.2917 5.4073 0.0000 -10772.8898 1451.3797 0.0000 0.0000 1795.9233 -7502.4581 306.7197 -9298.3814 -7420.6785 300.6523 -52.3166 -73.2480 30054.8649 -165.7173 -103.5743
ENERGY: 1200000 5.2332 11.6620 3.9041 0.0000 -10768.1444 1472.6120 0.0000 0.0000 1718.3416 -7556.3913 293.4698 -9274.7329 -7441.6329 300.2045 140.0469 211.7638 29924.3013 -58.3184 1.4471
ENERGY: 1500000 2.5879 10.8082 3.1470 0.0000 -10605.8624 1378.0700 0.0000 0.0000 1814.8400 -7396.4094 309.9505 -9211.2494 -7440.3545 300.6707 -464.3520 -444.9361 30290.2841 -60.1421 -2.3530
TCL: Running FEP window  15: Lambda1 0.7000000000000001 Lambda2 0.7500000000000001 [dLambda 0.050000000000000044]
TCL: Setting parameter firsttimestep to 0
TCL: Setting parameter alchLambda to 0.7000000000000001
Info: NONBONDED TABLE R-SQUARED SPACING: 0.0625
Info: NONBONDED TABLE SIZE: 705 POINTS
TCL: Setting parameter alchLambda2 to 0.7500000000000001
Info: NONBONDED TABLE R-SQUARED SPACING: 0.0625
Info: NONBONDED TABLE SIZE: 705 POINTS
TCL: Running for 1500000 steps
ETITLE: TS BOND ANGLE DIHED IMPRP ELECT VDW BOUNDARY MISC KINETIC TOTAL TEMP POTENTIAL TOTALAVG TEMPAVG PRESSURE GPRESSURE VOLUME PRESSAVG GPRESSAVG
ENERGY: 0 2.5879 10.8082 3.1470 0.0000 -10607.6507 1379.4747 0.0000 0.0000 1813.9332 -7397.6997 309.7956 -9211.6329 -7397.6997 309.7956 -495.8803 -425.6617 30290.2841 -495.8803 -425.6617
ENERGY: 300000 1.3890 10.2723 4.0302 0.0000 -10553.3098 1375.8521 0.0000 0.0000 1700.7334 -7461.0328 290.4626 -9161.7662 -7410.3149 303.6165 -472.7757 -386.0595 30369.9826 114.2277 179.7989
ENERGY: 600000 2.6377 10.0742 6.4445 0.0000 -10736.5896 1478.8280 0.0000 0.0000 1741.2328 -7497.3724 297.3793 -9238.6052 -7436.7213 301.5400 179.8798 251.5852 30074.2285 231.1937 286.6910
ENERGY: 900000 1.2474 7.9237 4.1960 0.0000 -10640.5759 1413.3385 0.0000 0.0000 1733.5928 -7480.2775 296.0745 -9213.8703 -7424.9451 300.7998 44.9500 100.2989 29784.6674 245.8844 297.4551
ENERGY: 1200000 2.9017 12.4751 3.2527 0.0000 -10548.9414 1385.6746 0.0000 0.0000 1737.6521 -7406.9851 296.7678 -9144.6372 -7435.6301 299.7683 -369.6320 -304.6653 30385.5061 169.8902 227.8893
ENERGY: 1500000 1.2399 8.1430 2.8286 0.0000 -10548.7518 1362.9739 0.0000 0.0000 1704.9878 -7468.5786 291.1892 -9173.5663 -7432.0463 299.9474 -175.1944 -115.8529 29872.7459 115.1188 169.6006
TCL: Running FEP window  16: Lambda1 0.7500000000000001 Lambda2 0.8000000000000002 [dLambda 0.050000000000000044]
TCL: Setting parameter firsttimestep to 0
TCL: Setting parameter alchLambda to 0.7500000000000001
Info: NONBONDED TABLE R-SQUARED SPACING: 0.0625
Info: NONBONDED TABLE SIZE: 705 POINTS
TCL: Setting parameter alchLambda2 to 0.8000000000000002
Info: NONBONDED TABLE R-SQUARED SPACING: 0.0625
Info: NONBONDED TABLE SIZE: 705 POINTS
TCL: Running for 1500000 steps
ETITLE: TS BOND ANGLE DIHED IMPRP ELECT VDW BOUNDARY MISC KINETIC TOTAL TEMP POTENTIAL TOTALAVG TEMPAVG PRESSURE GPRESSURE VOLUME PRESSAVG GPRESSAVG
ENERGY: 0 1.2399 8.1430 2.8286 0.0000 -10549.7763 1362.3954 0.0000 0.0000 1704.1232 -7471.0461 291.0415 -9175.1694 -7471.0461 291.0415 -200.1488 -112.4330 29872.7459 -200.1488 -112.4330
ENERGY: 300000 0.9506 11.3008 4.6948 0.0000 -10655.0924 1431.9905 0.0000 0.0000 1750.9496 -7455.2059 299.0388 -9206.1556 -7449.9764 298.9593 11.1245 40.5255 30334.2218 54.0890 146.4285
ENERGY: 600000 1.7709 7.7334 6.7392 0.0000 -10542.6832 1303.3874 0.0000 0.0000 1733.7666 -7489.2857 296.1042 -9223.0522 -7441.9758 298.8168 -1065.3154 -1006.6084 30209.3682 -225.0791 -152.8681
ENERGY: 900000 1.7807 11.0156 3.2444 0.0000 -10675.4465 1445.3711 0.0000 0.0000 1759.8452 -7454.1895 300.5581 -9214.0347 -7449.6208 298.2541 152.6938 224.7491 30055.4304 -137.3979 -67.0467
ENERGY: 1200000 3.2001 6.0432 2.7877 0.0000 -10642.5216 1528.8982 0.0000 0.0000 1818.9805 -7282.6119 310.6576 -9101.5924 -7433.1419 300.1975 1004.2068 1074.7606 30133.6674 -50.7706 20.8102
ENERGY: 1500000 1.8425 16.4930 4.7304 0.0000 -10727.0082 1464.2865 0.0000 0.0000 1756.5806 -7483.0753 300.0005 -9239.6559 -7440.0390 300.3656 32.8723 39.5992 30281.4216 -32.1048 29.3838
TCL: Running FEP window  17: Lambda1 0.8000000000000002 Lambda2 0.8500000000000002 [dLambda 0.050000000000000044]
TCL: Setting parameter firsttimestep to 0
TCL: Setting parameter alchLambda to 0.8000000000000002
Info: NONBONDED TABLE R-SQUARED SPACING: 0.0625
Info: NONBONDED TABLE SIZE: 705 POINTS
TCL: Setting parameter alchLambda2 to 0.8500000000000002
Info: NONBONDED TABLE R-SQUARED SPACING: 0.0625
Info: NONBONDED TABLE SIZE: 705 POINTS
TCL: Running for 1500000 steps
ETITLE: TS BOND ANGLE DIHED IMPRP ELECT VDW BOUNDARY MISC KINETIC TOTAL TEMP POTENTIAL TOTALAVG TEMPAVG PRESSURE GPRESSURE VOLUME PRESSAVG GPRESSAVG
ENERGY: 0 1.8425 16.4930 4.7304 0.0000 -10727.9194 1467.1006 0.0000 0.0000 1755.6453 -7482.1076 299.8408 -9237.7530 -7482.1076 299.8408 14.7279 85.6438 30281.4216 14.7279 85.6438
ENERGY: 300000 2.5596 5.7859 4.6836 0.0000 -10727.2384 1499.7117 0.0000 0.0000 1725.4591 -7489.0386 294.6854 -9214.4977 -7468.4001 297.6592 331.0179 398.7813 30503.0901 -76.4435 -37.1520
ENERGY: 600000 2.4833 10.5254 4.7674 0.0000 -10546.0045 1321.1253 0.0000 0.0000 1738.6055 -7468.4975 296.9306 -9207.1030 -7464.2975 298.0691 -1125.5776 -1016.7575 30592.9671 -256.8933 -203.5777
ENERGY: 900000 2.1468 11.4352 5.4981 0.0000 -10703.9975 1462.8405 0.0000 0.0000 1760.8036 -7461.2733 300.7218 -9222.0770 -7443.7748 299.7322 347.6279 409.5263 29846.5232 -140.4559 -92.0996
ENERGY: 1200000 2.4507 11.4482 4.0840 0.0000 -10855.7609 1534.0981 0.0000 0.0000 1699.2067 -7604.4731 290.2018 -9303.6798 -7448.8291 299.9381 636.3048 657.2135 30219.9970 -27.2957 22.9686
ENERGY: 1500000 4.6258 8.5699 3.4108 0.0000 -10754.9543 1545.1926 0.0000 0.0000 1706.4502 -7486.7050 291.4389 -9193.1551 -7443.8613 299.8239 914.5257 977.5735 29965.5057 23.5301 79.1704
TCL: Running FEP window  18: Lambda1 0.8500000000000002 Lambda2 0.9000000000000002 [dLambda 0.050000000000000044]
TCL: Setting parameter firsttimestep to 0
TCL: Setting parameter alchLambda to 0.8500000000000002
Info: NONBONDED TABLE R-SQUARED SPACING: 0.0625
Info: NONBONDED TABLE SIZE: 705 POINTS
TCL: Setting parameter alchLambda2 to 0.9000000000000002
Info: NONBONDED TABLE R-SQUARED SPACING: 0.0625
Info: NONBONDED TABLE SIZE: 705 POINTS
TCL: Running for 1500000 steps
ETITLE: TS BOND ANGLE DIHED IMPRP ELECT VDW BOUNDARY MISC KINETIC TOTAL TEMP POTENTIAL TOTALAVG TEMPAVG PRESSURE GPRESSURE VOLUME PRESSAVG GPRESSAVG
ENERGY: 0 4.6258 8.5699 3.4108 0.0000 -10756.2959 1544.9805 0.0000 0.0000 1705.5822 -7489.1267 291.2907 -9194.7089 -7489.1267 291.2907 894.6923 986.9563 29965.5057 894.6923 986.9563
ENERGY: 300000 1.8256 10.4229 4.6721 0.0000 -10687.3199 1402.5547 0.0000 0.0000 1710.0018 -7557.8428 292.0455 -9267.8445 -7472.2360 297.4202 -232.6551 -201.7685 30074.1032 -179.6441 -134.6932
ENERGY: 600000 4.0279 9.9169 3.3331 0.0000 -10454.6141 1281.6283 0.0000 0.0000 1747.9136 -7407.7942 298.5203 -9155.7077 -7463.0443 297.3214 -1231.8602 -1097.6439 30438.2877 -271.0541 -207.2123
ENERGY: 900000 2.3863 11.8805 3.8409 0.0000 -10616.5826 1410.4451 0.0000 0.0000 1786.1355 -7401.8944 305.0481 -9188.0299 -7460.0183 298.5319 -116.0114 -56.7376 30417.4382 -272.2775 -206.5419
ENERGY: 1200000 3.9915 13.1974 5.4699 0.0000 -10555.8905 1431.8174 0.0000 0.0000 1718.7016 -7382.7127 293.5313 -9101.4143 -7446.8816 299.3959 466.9592 551.3967 30388.0175 -180.3873 -116.4379
ENERGY: 1500000 0.9102 9.9820 4.4035 0.0000 -10512.3077 1412.3299 0.0000 0.0000 1804.6656 -7280.0166 308.2128 -9084.6822 -7430.5423 300.0718 385.2429 421.3860 30300.2334 -121.2189 -59.8796
TCL: Running FEP window  19: Lambda1 0.9000000000000002 Lambda2 0.9500000000000003 [dLambda 0.050000000000000044]
TCL: Setting parameter firsttimestep to 0
TCL: Setting parameter alchLambda to 0.9000000000000002
Info: NONBONDED TABLE R-SQUARED SPACING: 0.0625
Info: NONBONDED TABLE SIZE: 705 POINTS
TCL: Setting parameter alchLambda2 to 0.9500000000000003
Info: NONBONDED TABLE R-SQUARED SPACING: 0.0625
Info: NONBONDED TABLE SIZE: 705 POINTS
TCL: Running for 1500000 steps
ETITLE: TS BOND ANGLE DIHED IMPRP ELECT VDW BOUNDARY MISC KINETIC TOTAL TEMP POTENTIAL TOTALAVG TEMPAVG PRESSURE GPRESSURE VOLUME PRESSAVG GPRESSAVG
ENERGY: 0 0.9102 9.9820 4.4035 0.0000 -10514.0454 1413.6089 0.0000 0.0000 1803.8207 -7281.3201 308.0685 -9085.1408 -7281.3201 308.0685 349.0997 438.9035 30300.2334 349.0997 438.9035
ENERGY: 300000 4.1262 9.8404 5.2354 0.0000 -10742.6169 1533.2640 0.0000 0.0000 1780.7536 -7409.3972 304.1290 -9190.1508 -7425.5313 301.0091 1102.2933 1193.9711 29940.0086 332.9057 403.3004
ENERGY: 600000 3.8136 11.4508 3.5435 0.0000 -10434.7317 1356.3608 0.0000 0.0000 1679.0522 -7380.5109 286.7597 -9059.5631 -7440.4612 297.1619 -175.1655 -95.0922 30465.8269 170.5157 254.1575
ENERGY: 900000 2.1669 11.1473 4.9600 0.0000 -10465.7902 1366.6506 0.0000 0.0000 1822.1937 -7258.6718 311.2064 -9080.8655 -7426.6357 300.3275 -97.3710 -53.4011 30113.1631 115.2290 195.4472
ENERGY: 1200000 1.5475 11.9391 3.0871 0.0000 -10535.4614 1353.3846 0.0000 0.0000 1755.0503 -7410.4528 299.7392 -9165.5031 -7421.2929 300.1616 -637.4265 -563.0653 30501.0954 44.6811 124.3635
ENERGY: 1500000 3.2917 10.0781 3.5158 0.0000 -10751.5011 1498.1099 0.0000 0.0000 1800.2922 -7436.2135 307.4659 -9236.5057 -7418.9285 301.3033 661.2665 715.2916 29696.9657 9.5701 88.9473
TCL: Running FEP window  20: Lambda1 0.9500000000000003 Lambda2 1.0    [dLambda 0.04999999999999971]
TCL: Setting parameter firsttimestep to 0
TCL: Setting parameter alchLambda to 0.9500000000000003
Info: NONBONDED TABLE R-SQUARED SPACING: 0.0625
Info: NONBONDED TABLE SIZE: 705 POINTS
TCL: Setting parameter alchLambda2 to 1.0
Info: NONBONDED TABLE R-SQUARED SPACING: 0.0625
Info: NONBONDED TABLE SIZE: 705 POINTS
TCL: Running for 1500000 steps
ETITLE: TS BOND ANGLE DIHED IMPRP ELECT VDW BOUNDARY MISC KINETIC TOTAL TEMP POTENTIAL TOTALAVG TEMPAVG PRESSURE GPRESSURE VOLUME PRESSAVG GPRESSAVG
ENERGY: 0 3.2917 10.0781 3.5158 0.0000 -10752.0879 1497.7919 0.0000 0.0000 1799.4661 -7437.9442 307.3248 -9237.4104 -7437.9442 307.3248 647.9079 730.7436 29696.9657 647.9079 730.7436
ENERGY: 300000 6.8751 12.7469 3.2087 0.0000 -10604.2323 1377.7298 0.0000 0.0000 1772.1304 -7431.5415 302.6562 -9203.6719 -7404.6996 304.5994 -302.1713 -212.1176 30157.0256 196.3400 259.9196
ENERGY: 600000 3.1611 9.3375 3.9469 0.0000 -10819.7881 1534.6053 0.0000 0.0000 1760.6376 -7508.0996 300.6934 -9268.7372 -7434.5856 301.7380 770.8977 846.0575 30219.5364 383.0994 442.0817
ENERGY: 900000 1.8063 11.3267 5.3624 0.0000 -10691.6504 1445.3789 0.0000 0.0000 1713.5086 -7514.2675 292.6444 -9227.7760 -7439.3837 300.8342 -1.8640 88.8624 30497.7276 285.3697 345.9858
ENERGY: 1200000 3.8834 7.3945 5.6907 0.0000 -10680.1937 1463.2852 0.0000 0.0000 1733.1088 -7466.8311 295.9919 -9199.9399 -7440.4363 300.6838 340.8764 351.6937 30078.7264 303.4182 354.4748
ENERGY: 1500000 2.1779 8.7869 5.9530 0.0000 -10669.2079 1444.7109 0.0000 0.0000 1763.7529 -7443.8263 301.2255 -9207.5791 -7435.3598 301.3942 407.5607 483.4289 29758.8868 266.5907 315.9159
TCL: Exiting due to exit command.
