Info: SIMULATION PARAMETERS:
Info: TIMESTEP               2
Info: NUMBER OF STEPS        0
Info: STEPS PER CYCLE        10
Info: PERIODIC CELL BASIS 1  32.1849 0 0
Info: PERIODIC CELL BASIS 2  0 29.3765 0
Info: PERIODIC CELL BASIS 3  0 0 31.8392
Info: PERIODIC CELL CENTER   0 0 0
Info: WRAPPING WATERS AROUND PERIODIC BOUNDARIES ON OUTPUT.
Info: WRAPPING ALL CLUSTERS AROUND PERIODIC BOUNDARIES ON OUTPUT.
Info: FIRST LDB TIMESTEP     50
Info: LAST LDB TIMESTEP     -1
Info: HOM BACKGROUND SCALING 1
Info: PME BACKGROUND SCALING 1
Info: MIN ATOMS PER PATCH    40
Info: EMPTY PATCH LOAD       40 ATOMS
Info: VELOCITY FILE          mobley_9281946_equil.vel
Info: CENTER OF MASS MOVING INITIALLY? NO
Info: DIELECTRIC             1
Info: EXCLUDE                SCALED ONE-FOUR
Info: 1-4 ELECTROSTATICS SCALED BY 0.833333
Info: MODIFIED 1-4 VDW PARAMETERS WILL BE USED
Info: DCD FILENAME           mobley_9281946_prod.dcd
Info: DCD FREQUENCY          100000
Info: DCD FIRST STEP         100000
Info: DCD FILE WILL CONTAIN UNIT CELL DATA
Info: XST FILENAME           mobley_9281946_prod.xst
Info: XST FREQUENCY          100000
Info: NO VELOCITY DCD OUTPUT
Info: NO FORCE DCD OUTPUT
Info: OUTPUT FILENAME        mobley_9281946_prod
Info: BINARY OUTPUT FILES WILL BE USED
Info: RESTART FILENAME       mobley_9281946_prod.restart
Info: RESTART FREQUENCY      100000
Info: BINARY RESTART FILES WILL BE USED
Info: CUTOFF                 9
Info: PAIRLIST DISTANCE      11
Info: PAIRLIST SHRINK RATE   0.01
Info: PAIRLIST GROW RATE     0.01
Info: PAIRLIST TRIGGER       0.3
Info: PAIRLISTS PER CYCLE    2
Info: PAIRLISTS ENABLED
Info: MARGIN                 2
Info: HYDROGEN GROUP CUTOFF  2.5
Info: PATCH DIMENSION        15.5
Info: ENERGY OUTPUT STEPS    100000
Info: ENERGY EVALUATION STEPS    100000
Info: OUTPUT ENERGY PRECISION 4
Info: CROSSTERM ENERGY INCLUDED IN DIHEDRAL
Info: TIMING OUTPUT STEPS    1000000
Info: PRESSURE OUTPUT STEPS  100000
Info: ALCHEMICAL FEP ON
Info: FEP CURRENT LAMBDA VALUE     0
Info: FEP COMPARISON LAMBDA VALUE  0.05
Info: FEP INTRA-ALCHEMICAL NON-BONDED INTERACTIONS WILL BE RETAINED
Info: FEP INTRA-ALCHEMICAL BONDED INTERACTIONS WILL BE RETAINED
Info: FEP VDW SHIFTING COEFFICIENT 5
Info: FEP ELEC. ACTIVE FOR ANNIHILATED PARTICLES BETWEEN LAMBDA = 0 AND LAMBDA = 0.5
Info: FEP ELEC. ACTIVE FOR EXNIHILATED PARTICLES BETWEEN LAMBDA = 0.5 AND LAMBDA = 1
Info: FEP VDW ACTIVE FOR ANNIHILATED PARTICLES BETWEEN LAMBDA = 0 AND LAMBDA = 1
Info: FEP VDW ACTIVE FOR EXNIHILATED PARTICLES BETWEEN LAMBDA = 0 AND LAMBDA = 1
Info: FEP BOND ACTIVE FOR ANNIHILATED PARTICLES BETWEEN LAMBDA = 1 AND LAMBDA = 1
Info: FEP BOND ACTIVE FOR EXNIHILATED PARTICLES BETWEEN LAMBDA = 0 AND LAMBDA = 0
Info: LANGEVIN DYNAMICS ACTIVE
Info: LANGEVIN TEMPERATURE   300
Info: LANGEVIN USING BBK INTEGRATOR
Info: LANGEVIN DAMPING COEFFICIENT IS 1 INVERSE PS
Info: LANGEVIN DYNAMICS APPLIED TO HYDROGENS
Info: LANGEVIN PISTON PRESSURE CONTROL ACTIVE
Info:        TARGET PRESSURE IS 1.01325 BAR
Info:     OSCILLATION PERIOD IS 50 FS
Info:             DECAY TIME IS 25 FS
Info:     PISTON TEMPERATURE IS 300 K
Info:       PRESSURE CONTROL IS GROUP-BASED
Info:    INITIAL STRAIN RATE IS -0.000379601 -0.000379601 -0.000379601
Info:       CELL FLUCTUATION IS ISOTROPIC
Info: PARTICLE MESH EWALD (PME) ACTIVE
Info: PME TOLERANCE               1e-06
Info: PME EWALD COEFFICIENT       0.348832
Info: PME INTERPOLATION ORDER     4
Info: PME GRID DIMENSIONS         36 32 32
Info: PME MAXIMUM GRID SPACING    1
Info: PME CALCULATION WILL BE PERFORMED ON GPU
Info: FULL ELECTROSTATIC EVALUATION FREQUENCY      2
Info: USING VERLET I (r-RESPA) MTS SCHEME.
Info: C1 SPLITTING OF LONG RANGE ELECTROSTATICS
Info: PLACING ATOMS IN PATCHES BY HYDROGEN GROUPS
Info: RIGID BONDS TO HYDROGEN : ALL
Info:         ERROR TOLERANCE : 1e-08
Info:          MAX ITERATIONS : 100
Info: RIGID WATER USING SETTLE ALGORITHM
Info: RANDOM NUMBER SEED     1744084757
Info: USE HYDROGEN BONDS?    NO
Info: Using AMBER format force field!
Info: AMBER PARM FILE        mobley_9281946.prmtop
Info: COORDINATE PDB         mobley_9281946.pdb
Info: Exclusions will be read from PARM file!
Info: SCNB (VDW SCALING)     2
Info: USING ARITHMETIC MEAN TO COMBINE L-J SIGMA PARAMETERS
Info: BINARY COORDINATES     mobley_9281946_equil.coor
Info: SUMMARY OF PARAMETERS:
Info: 13 BONDS
Info: 16 ANGLES
Info:   16 HARMONIC
Info:   0 COSINE-BASED
Info: 12 DIHEDRAL
Info: 0 IMPROPER
Info: 0 CROSSTERM
Info: 0 VDW
Info: 78 VDW_PAIRS
Info: 0 NBTHOLE_PAIRS
Info: To read alchdata from file: mobley_9281946.pdb
Info: To read alchflag data from column: 5
Info: STRUCTURE SUMMARY:
Info: 2918 ATOMS
Info: 2918 BONDS
Info: 54 ANGLES
Info: 81 DIHEDRALS
Info: 0 IMPROPERS
Info: 0 CROSSTERMS
Info: 3032 EXCLUSIONS
Info: 2900 RIGID BONDS
Info: ALCH: 0 ATOMS TO DISAPPEAR IN FINAL STATE
Info: ALCH: 32 ATOMS TO APPEAR IN FINAL STATE
Info: 5854 DEGREES OF FREEDOM
Info: 980 HYDROGEN GROUPS
Info: 4 ATOMS IN LARGEST HYDROGEN GROUP
Info: 980 MIGRATION GROUPS
Info: 4 ATOMS IN LARGEST MIGRATION GROUP
Info: TOTAL MASS = 17622.6 amu
Info: TOTAL CHARGE = -0.000100061 e
Info: MASS DENSITY = 0.972112 g/cm^3
Info: ATOM DENSITY = 0.0969329 atoms/A^3
Info: ADDED 0 IMPLICIT EXCLUSIONS
Info: NONBONDED TABLE R-SQUARED SPACING: 0.0625
Info: NONBONDED TABLE SIZE: 705 POINTS
Info: REMOVING COM VELOCITY 0.0344739 0.0714121 0.216805
Info: Use 3D box decompostion in PME FFT.
Info: Updated CUDA force table with 4096 elements.
Info: Updated CUDA LJ table with 12 x 12 elements.
Info: Found 34 unique exclusion lists needing 136 bytes
TCL: Running for 1500000 steps
ETITLE: TS BOND ANGLE DIHED IMPRP ELECT VDW BOUNDARY MISC KINETIC TOTAL TEMP POTENTIAL TOTALAVG TEMPAVG PRESSURE GPRESSURE VOLUME PRESSAVG GPRESSAVG
ENERGY: 0 5.1687 13.9707 17.7277 0.0000 -10593.8552 1417.9657 0.0000 0.0000 1814.4182 -7324.6043 311.9429 -9139.0224 -7324.6043 311.9429 -100.7097 -27.4915 30103.2877 -100.7097 -27.4915
ENERGY: 300000 4.3426 19.0132 19.8331 0.0000 -10535.0062 1359.4516 0.0000 0.0000 1779.2063 -7353.1593 305.8891 -9132.3656 -7350.8437 307.0369 -367.8577 -320.4146 29480.0606 -219.6736 -160.8729
ENERGY: 600000 8.5674 21.5478 21.9297 0.0000 -10642.5803 1454.8715 0.0000 0.0000 1755.0809 -7380.5830 301.7413 -9135.6640 -7375.4172 303.3423 262.6954 381.4144 29594.6591 -139.1723 -74.0566
ENERGY: 900000 4.7087 18.6039 18.8621 0.0000 -10490.2079 1354.7945 0.0000 0.0000 1820.9627 -7272.2760 313.0680 -9093.2387 -7374.0109 302.5484 -370.2976 -348.3922 29824.5258 -23.9996 30.9719
ENERGY: 1200000 3.3759 20.2988 22.5748 0.0000 -10757.5928 1521.2314 0.0000 0.0000 1753.5560 -7436.5559 301.4792 -9190.1119 -7383.3959 301.8850 839.0126 929.8503 29219.6831 101.0307 155.2292
ENERGY: 1500000 7.7679 16.5831 18.4721 0.0000 -10791.0570 1580.1710 0.0000 0.0000 1710.0144 -7458.0486 293.9933 -9168.0629 -7382.0008 301.9108 720.4633 805.2693 30010.8786 139.9499 198.4173
TCL: Running FEP window   2: Lambda1 0.05   Lambda2 0.1    [dLambda 0.05  ]
TCL: Setting parameter firsttimestep to 0
TCL: Setting parameter alchLambda to 0.05
Info: NONBONDED TABLE R-SQUARED SPACING: 0.0625
Info: NONBONDED TABLE SIZE: 705 POINTS
TCL: Setting parameter alchLambda2 to 0.1
Info: NONBONDED TABLE R-SQUARED SPACING: 0.0625
Info: NONBONDED TABLE SIZE: 705 POINTS
TCL: Running for 1500000 steps
ETITLE: TS BOND ANGLE DIHED IMPRP ELECT VDW BOUNDARY MISC KINETIC TOTAL TEMP POTENTIAL TOTALAVG TEMPAVG PRESSURE GPRESSURE VOLUME PRESSAVG GPRESSAVG
ENERGY: 0 7.7679 16.5831 18.4721 0.0000 -10791.0559 1590.8939 0.0000 0.0000 1709.1485 -7448.1905 293.8444 -9157.3390 -7448.1905 293.8444 744.9251 825.1193 30010.8786 744.9251 825.1193
ENERGY: 300000 8.0179 15.0006 22.5858 0.0000 -10517.5238 1409.2199 0.0000 0.0000 1721.7758 -7340.9238 296.0154 -9062.6996 -7388.1332 297.8198 -69.0280 -28.6085 29687.3087 -100.7820 -45.1437
ENERGY: 600000 3.7370 13.1702 18.6469 0.0000 -10344.9571 1292.1105 0.0000 0.0000 1788.0823 -7229.2101 307.4151 -9017.2924 -7345.1554 300.2143 -545.2237 -461.2280 29810.4136 -63.7160 -1.7720
ENERGY: 900000 6.2876 15.0455 16.7863 0.0000 -10645.3779 1467.2145 0.0000 0.0000 1771.8675 -7368.1764 304.6274 -9140.0440 -7334.3490 301.7241 164.9300 248.1902 29832.9487 -125.6082 -63.9595
ENERGY: 1200000 6.4643 10.8368 22.1995 0.0000 -10403.3186 1330.0742 0.0000 0.0000 1724.1655 -7309.5783 296.4262 -9033.7438 -7344.6460 300.3518 -657.2272 -652.2092 29997.7774 -206.3283 -146.5248
ENERGY: 1500000 8.7987 13.9737 20.2702 0.0000 -10525.0432 1345.6971 0.0000 0.0000 1708.1863 -7428.1173 293.6790 -9136.3036 -7355.1476 300.1168 -963.9473 -884.8807 30309.5952 -204.7251 -145.8785
TCL: Running FEP window   3: Lambda1 0.1    Lambda2 0.15000000000000002 [dLambda 0.05000000000000002]
TCL: Setting parameter firsttimestep to 0
TCL: Setting parameter alchLambda to 0.1
Info: NONBONDED TABLE R-SQUARED SPACING: 0.0625
Info: NONBONDED TABLE SIZE: 705 POINTS
TCL: Setting parameter alchLambda2 to 0.15000000000000002
Info: NONBONDED TABLE R-SQUARED SPACING: 0.0625
Info: NONBONDED TABLE SIZE: 705 POINTS
TCL: Running for 1500000 steps
ETITLE: TS BOND ANGLE DIHED IMPRP ELECT VDW BOUNDARY MISC KINETIC TOTAL TEMP POTENTIAL TOTALAVG TEMPAVG PRESSURE GPRESSURE VOLUME PRESSAVG GPRESSAVG
ENERGY: 0 8.7987 13.9737 20.2702 0.0000 -10525.0436 1348.8344 0.0000 0.0000 1707.3050 -7425.8616 293.5275 -9133.1666 -7425.8616 293.5275 -956.4457 -867.4694 30309.5952 -956.4457 -867.4694
ENERGY: 300000 5.2838 12.1060 18.0758 0.0000 -10487.7102 1415.7939 0.0000 0.0000 1728.4273 -7308.0234 297.1589 -9036.4507 -7375.6492 301.1575 -106.1901 -22.6776 29725.1166 115.2593 185.1130
ENERGY: 600000 3.7871 12.6635 18.4505 0.0000 -10703.5696 1511.7766 0.0000 0.0000 1687.8392 -7469.0528 290.1808 -9156.8919 -7375.4659 298.1008 344.7900 452.1136 29892.6331 222.9483 301.7470
ENERGY: 900000 8.4550 20.5661 20.3186 0.0000 -10556.2493 1402.8152 0.0000 0.0000 1741.5075 -7362.5869 299.4077 -9104.0944 -7367.7145 299.0906 -173.7690 -76.0846 29429.2783 110.6986 189.3579
ENERGY: 1200000 7.4152 11.1909 17.6040 0.0000 -10527.9349 1365.7964 0.0000 0.0000 1792.2141 -7333.7143 308.1254 -9125.9284 -7368.4753 298.9502 -641.3511 -591.1523 29887.5852 87.0503 161.9510
ENERGY: 1500000 8.8595 19.1879 17.0621 0.0000 -10513.0968 1289.0543 0.0000 0.0000 1746.1520 -7432.7809 300.2062 -9178.9330 -7364.7947 299.2931 -1317.8425 -1197.8444 29553.9825 -30.6813 44.4356
TCL: Running FEP window   4: Lambda1 0.15000000000000002 Lambda2 0.2    [dLambda 0.04999999999999999]
TCL: Setting parameter firsttimestep to 0
TCL: Setting parameter alchLambda to 0.15000000000000002
Info: NONBONDED TABLE R-SQUARED SPACING: 0.0625
Info: NONBONDED TABLE SIZE: 705 POINTS
TCL: Setting parameter alchLambda2 to 0.2
Info: NONBONDED TABLE R-SQUARED SPACING: 0.0625
Info: NONBONDED TABLE SIZE: 705 POINTS
TCL: Running for 1500000 steps
ETITLE: TS BOND ANGLE DIHED IMPRP ELECT VDW BOUNDARY MISC KINETIC TOTAL TEMP POTENTIAL TOTALAVG TEMPAVG PRESSURE GPRESSURE VOLUME PRESSAVG GPRESSAVG
ENERGY: 0 8.8595 19.1879 17.0621 0.0000 -10513.0957 1290.4062 0.0000 0.0000 1745.2637 -7432.3164 300.0535 -9177.5800 -7432.3164 300.0535 -1258.0841 -1182.5501 29553.9825 -1258.0841 -1182.5501
ENERGY: 300000 4.4277 17.9880 22.7414 0.0000 -10607.5013 1427.9078 0.0000 0.0000 1794.4225 -7340.0139 308.5051 -9134.4364 -7365.9850 302.7083 168.4840 146.0588 29816.1597 -133.1490 -107.8348
ENERGY: 600000 2.8908 15.9608 20.7405 0.0000 -10712.5196 1484.4357 0.0000 0.0000 1730.5049 -7457.9869 297.5161 -9188.4918 -7384.6066 302.3476 482.4609 508.8513 29572.3293 54.4987 92.8433
ENERGY: 900000 5.3170 17.1175 28.8344 0.0000 -10686.2055 1451.9160 0.0000 0.0000 1770.4108 -7412.6098 304.3769 -9183.0206 -7382.8320 302.2669 -73.2002 -3.5183 30223.8857 -80.1391 -40.3636
ENERGY: 1200000 6.7512 17.2945 19.9954 0.0000 -10468.1077 1364.9127 0.0000 0.0000 1770.5933 -7288.5605 304.4083 -9059.1538 -7373.5623 302.4733 -160.3383 -127.7283 29756.6236 -47.6795 -12.6168
ENERGY: 1500000 3.3865 16.8253 19.1897 0.0000 -10753.5114 1479.3516 0.0000 0.0000 1743.2565 -7491.5018 299.7084 -9234.7583 -7378.5169 302.5288 79.6518 166.0056 29899.7416 54.8385 97.2391
TCL: Running FEP window   5: Lambda1 0.2    Lambda2 0.25   [dLambda 0.04999999999999999]
TCL: Setting parameter firsttimestep to 0
TCL: Setting parameter alchLambda to 0.2
Info: NONBONDED TABLE R-SQUARED SPACING: 0.0625
Info: NONBONDED TABLE SIZE: 705 POINTS
TCL: Setting parameter alchLambda2 to 0.25
Info: NONBONDED TABLE R-SQUARED SPACING: 0.0625
Info: NONBONDED TABLE SIZE: 705 POINTS
TCL: Running for 1500000 steps
ETITLE: TS BOND ANGLE DIHED IMPRP ELECT VDW BOUNDARY MISC KINETIC TOTAL TEMP POTENTIAL TOTALAVG TEMPAVG PRESSURE GPRESSURE VOLUME PRESSAVG GPRESSAVG
ENERGY: 0 3.3865 16.8253 19.1897 0.0000 -10753.5110 1480.0584 0.0000 0.0000 1742.3814 -7491.6697 299.5580 -9234.0510 -7491.6697 299.5580 87.5468 172.8920 29899.7416 87.5468 172.8920
ENERGY: 300000 5.1471 12.7086 21.1122 0.0000 -10516.3561 1345.7062 0.0000 0.0000 1765.9205 -7365.7615 303.6049 -9131.6819 -7380.5392 299.5750 -665.1168 -630.8270 30235.0725 -19.5597 66.0424
ENERGY: 600000 3.6072 13.1200 18.9682 0.0000 -10582.4807 1455.6051 0.0000 0.0000 1709.4973 -7381.6828 293.9044 -9091.1802 -7386.9690 296.9537 485.1346 538.6098 29402.0012 88.6932 164.7290
ENERGY: 900000 4.9419 13.0640 19.1301 0.0000 -10639.9608 1469.8243 0.0000 0.0000 1766.2521 -7366.7483 303.6619 -9133.0004 -7367.4555 298.6907 644.6254 725.3201 29538.0213 75.4398 149.5128
ENERGY: 1200000 2.8049 14.3933 19.0460 0.0000 -10677.8018 1470.1801 0.0000 0.0000 1740.9445 -7430.4329 299.3109 -9171.3774 -7368.5346 298.0007 354.7862 462.1048 29528.5071 60.3904 145.0662
ENERGY: 1500000 3.4177 12.0166 24.6702 0.0000 -10661.1483 1462.5821 0.0000 0.0000 1761.1987 -7397.2630 302.7931 -9158.4617 -7375.3730 298.1641 215.2474 311.6744 29803.8861 70.5093 147.9190
TCL: Running FEP window   6: Lambda1 0.25   Lambda2 0.3    [dLambda 0.04999999999999999]
TCL: Setting parameter firsttimestep to 0
TCL: Setting parameter alchLambda to 0.25
Info: NONBONDED TABLE R-SQUARED SPACING: 0.0625
Info: NONBONDED TABLE SIZE: 705 POINTS
TCL: Setting parameter alchLambda2 to 0.3
Info: NONBONDED TABLE R-SQUARED SPACING: 0.0625
Info: NONBONDED TABLE SIZE: 705 POINTS
TCL: Running for 1500000 steps
ETITLE: TS BOND ANGLE DIHED IMPRP ELECT VDW BOUNDARY MISC KINETIC TOTAL TEMP POTENTIAL TOTALAVG TEMPAVG PRESSURE GPRESSURE VOLUME PRESSAVG GPRESSAVG
ENERGY: 0 3.4177 12.0166 24.6702 0.0000 -10661.1479 1463.4180 0.0000 0.0000 1760.3338 -7397.2916 302.6444 -9157.6254 -7397.2916 302.6444 231.5821 324.9733 29803.8861 231.5821 324.9733
ENERGY: 300000 4.5052 21.3766 23.4255 0.0000 -10451.6222 1358.8217 0.0000 0.0000 1760.4098 -7283.0834 302.6575 -9043.4932 -7319.0799 304.3512 -377.1533 -338.0317 30171.1994 -180.7411 -121.8893
ENERGY: 600000 10.2978 12.8682 22.0030 0.0000 -10549.3973 1364.5913 0.0000 0.0000 1717.2017 -7422.4353 295.2290 -9139.6370 -7341.1779 301.1923 -396.3571 -317.8287 29791.1354 -372.6564 -293.9471
ENERGY: 900000 5.2828 16.3823 26.1336 0.0000 -10400.0182 1305.6235 0.0000 0.0000 1828.8263 -7217.7698 314.4200 -9046.5960 -7330.4880 303.3916 -878.2289 -797.2929 30796.3382 -380.2679 -304.7446
ENERGY: 1200000 7.0843 17.4684 18.9544 0.0000 -10616.9484 1395.2103 0.0000 0.0000 1704.8492 -7473.3817 293.1053 -9178.2310 -7348.0844 302.4397 -544.5505 -501.9753 30167.1757 -438.8234 -372.2808
ENERGY: 1500000 5.2331 13.7900 20.8204 0.0000 -10548.7568 1415.6748 0.0000 0.0000 1716.7790 -7376.4597 295.1563 -9093.2386 -7356.0647 301.6176 -201.8795 -113.4974 30049.6367 -473.0175 -409.8747
TCL: Running FEP window   7: Lambda1 0.3    Lambda2 0.35   [dLambda 0.04999999999999999]
TCL: Setting parameter firsttimestep to 0
TCL: Setting parameter alchLambda to 0.3
Info: NONBONDED TABLE R-SQUARED SPACING: 0.0625
Info: NONBONDED TABLE SIZE: 705 POINTS
TCL: Setting parameter alchLambda2 to 0.35
Info: NONBONDED TABLE R-SQUARED SPACING: 0.0625
Info: NONBONDED TABLE SIZE: 705 POINTS
TCL: Running for 1500000 steps
ETITLE: TS BOND ANGLE DIHED IMPRP ELECT VDW BOUNDARY MISC KINETIC TOTAL TEMP POTENTIAL TOTALAVG TEMPAVG PRESSURE GPRESSURE VOLUME PRESSAVG GPRESSAVG
ENERGY: 0 5.2331 13.7900 20.8204 0.0000 -10548.7571 1415.8621 0.0000 0.0000 1715.9354 -7377.1162 295.0113 -9093.0516 -7377.1162 295.0113 -184.3799 -105.7846 30049.6367 -184.3799 -105.7846
ENERGY: 300000 6.5143 18.8395 22.0414 0.0000 -10585.8620 1423.2215 0.0000 0.0000 1705.5235 -7409.7217 293.2212 -9115.2452 -7369.7272 296.9188 -109.1210 -10.4641 29649.0228 62.6015 129.6362
ENERGY: 600000 5.7071 9.9316 26.7468 0.0000 -10536.9294 1450.1572 0.0000 0.0000 1736.0258 -7308.3607 298.4653 -9044.3865 -7347.0436 298.4691 104.3532 110.2655 30322.4978 -116.7775 -55.5194
ENERGY: 900000 5.9721 17.2787 18.5222 0.0000 -10457.8271 1299.4805 0.0000 0.0000 1733.1778 -7383.3957 297.9757 -9116.5735 -7340.4606 298.8762 -1019.1213 -977.9715 30133.0340 -94.4042 -32.8051
ENERGY: 1200000 8.1201 15.9572 21.2062 0.0000 -10587.9212 1387.4348 0.0000 0.0000 1713.3397 -7441.8632 294.5650 -9155.2028 -7360.2295 298.1509 -368.8778 -355.5924 30001.4797 -84.1068 -24.4698
ENERGY: 1500000 4.2585 17.8350 19.9566 0.0000 -10545.0754 1374.1431 0.0000 0.0000 1755.4175 -7373.4648 301.7992 -9128.8823 -7362.4266 299.1353 -249.7335 -260.9813 29813.9918 -97.1478 -42.9764
TCL: Running FEP window   8: Lambda1 0.35   Lambda2 0.39999999999999997 [dLambda 0.04999999999999999]
TCL: Setting parameter firsttimestep to 0
TCL: Setting parameter alchLambda to 0.35
Info: NONBONDED TABLE R-SQUARED SPACING: 0.0625
Info: NONBONDED TABLE SIZE: 705 POINTS
TCL: Setting parameter alchLambda2 to 0.39999999999999997
Info: NONBONDED TABLE R-SQUARED SPACING: 0.0625
Info: NONBONDED TABLE SIZE: 705 POINTS
TCL: Running for 1500000 steps
ETITLE: TS BOND ANGLE DIHED IMPRP ELECT VDW BOUNDARY MISC KINETIC TOTAL TEMP POTENTIAL TOTALAVG TEMPAVG PRESSURE GPRESSURE VOLUME PRESSAVG GPRESSAVG
ENERGY: 0 4.2585 17.8350 19.9566 0.0000 -10545.0747 1374.3004 0.0000 0.0000 1754.5056 -7374.2185 301.6424 -9128.7241 -7374.2185 301.6424 -339.2201 -256.5428 29813.9918 -339.2201 -256.5428
ENERGY: 300000 6.4741 9.4093 18.8786 0.0000 -10601.8713 1439.2225 0.0000 0.0000 1727.9948 -7399.8920 297.0846 -9127.8869 -7377.3853 302.3176 71.6859 150.7701 30115.7861 -62.3465 2.9487
ENERGY: 600000 7.5252 17.4455 19.3654 0.0000 -10522.0837 1350.7255 0.0000 0.0000 1725.2881 -7401.7340 296.6192 -9127.0221 -7379.1440 302.1820 -651.5150 -615.7021 30452.2292 -188.9353 -131.9097
ENERGY: 900000 7.1554 12.8356 18.6112 0.0000 -10543.3485 1377.3256 0.0000 0.0000 1734.9177 -7392.5030 298.2748 -9127.4207 -7379.2072 301.8942 -68.1434 -20.8684 29665.8564 -97.6299 -45.5163
ENERGY: 1200000 4.4607 14.0893 20.2832 0.0000 -10684.2366 1522.5074 0.0000 0.0000 1741.5880 -7381.3080 299.4216 -9122.8960 -7373.5832 300.9467 745.5666 785.0544 29880.5363 -9.3697 40.3002
ENERGY: 1500000 2.9525 15.9816 20.5590 0.0000 -10491.2710 1357.7816 0.0000 0.0000 1780.1654 -7313.8309 306.0540 -9093.9963 -7382.0947 300.7718 -287.3210 -190.1514 29970.1464 -1.2444 53.3210
TCL: Running FEP window   9: Lambda1 0.39999999999999997 Lambda2 0.44999999999999996 [dLambda 0.04999999999999999]
TCL: Setting parameter firsttimestep to 0
TCL: Setting parameter alchLambda to 0.39999999999999997
Info: NONBONDED TABLE R-SQUARED SPACING: 0.0625
Info: NONBONDED TABLE SIZE: 705 POINTS
TCL: Setting parameter alchLambda2 to 0.44999999999999996
Info: NONBONDED TABLE R-SQUARED SPACING: 0.0625
Info: NONBONDED TABLE SIZE: 705 POINTS
TCL: Running for 1500000 steps
ETITLE: TS BOND ANGLE DIHED IMPRP ELECT VDW BOUNDARY MISC KINETIC TOTAL TEMP POTENTIAL TOTALAVG TEMPAVG PRESSURE GPRESSURE VOLUME PRESSAVG GPRESSAVG
ENERGY: 0 2.9525 15.9816 20.5590 0.0000 -10491.2707 1357.1141 0.0000 0.0000 1779.3090 -7315.3544 305.9067 -9094.6634 -7315.3544 305.9067 -271.7994 -187.1837 29970.1464 -271.7994 -187.1837
ENERGY: 300000 3.8947 14.9276 22.0615 0.0000 -10638.2102 1424.4767 0.0000 0.0000 1826.5510 -7346.2988 314.0288 -9172.8498 -7327.2365 306.1957 -85.7107 -22.6893 29802.3329 -371.6541 -294.4405
ENERGY: 600000 4.6395 10.4741 21.2361 0.0000 -10437.7808 1328.8081 0.0000 0.0000 1729.1417 -7343.4814 297.2817 -9072.6230 -7354.5106 303.1273 -560.4032 -538.0684 30246.5053 -370.8208 -299.1342
ENERGY: 900000 7.7917 14.8776 25.7548 0.0000 -10498.6724 1434.9216 0.0000 0.0000 1732.9595 -7282.3672 297.9381 -9015.3268 -7364.5652 302.5251 434.8972 489.1773 30348.3955 -95.6073 -26.0155
ENERGY: 1200000 5.7150 15.1366 16.6665 0.0000 -10627.2951 1432.8382 0.0000 0.0000 1731.0088 -7425.9301 297.6027 -9156.9389 -7362.7190 301.6572 -35.2260 32.2312 30281.8353 -147.1872 -77.9466
ENERGY: 1500000 5.3527 14.0678 20.9084 0.0000 -10755.2018 1470.4973 0.0000 0.0000 1754.6918 -7489.6838 301.6744 -9244.3755 -7369.5035 300.9489 367.0061 449.4126 29644.2972 -210.4554 -143.2165
TCL: Running FEP window  10: Lambda1 0.44999999999999996 Lambda2 0.49999999999999994 [dLambda 0.04999999999999999]
TCL: Setting parameter firsttimestep to 0
TCL: Setting parameter alchLambda to 0.44999999999999996
Info: NONBONDED TABLE R-SQUARED SPACING: 0.0625
Info: NONBONDED TABLE SIZE: 705 POINTS
TCL: Setting parameter alchLambda2 to 0.49999999999999994
Info: NONBONDED TABLE R-SQUARED SPACING: 0.0625
Info: NONBONDED TABLE SIZE: 705 POINTS
TCL: Running for 1500000 steps
ETITLE: TS BOND ANGLE DIHED IMPRP ELECT VDW BOUNDARY MISC KINETIC TOTAL TEMP POTENTIAL TOTALAVG TEMPAVG PRESSURE GPRESSURE VOLUME PRESSAVG GPRESSAVG
ENERGY: 0 5.3527 14.0678 20.9084 0.0000 -10755.2018 1469.6715 0.0000 0.0000 1753.8086 -7491.3926 301.5226 -9245.2013 -7491.3926 301.5226 357.0353 451.7125 29644.2972 357.0353 451.7125
ENERGY: 300000 5.8891 21.0232 21.0338 0.0000 -10546.7668 1441.5762 0.0000 0.0000 1730.4292 -7326.8152 297.5031 -9057.2445 -7416.1774 297.4258 307.9964 380.3726 29910.5867 -19.2899 37.9985
ENERGY: 600000 8.8642 11.4573 25.5067 0.0000 -10439.4915 1366.4188 0.0000 0.0000 1751.1427 -7276.1018 301.0643 -9027.2445 -7412.5367 297.2178 -12.0703 6.3395 30472.0386 -155.3179 -105.0109
ENERGY: 900000 9.0330 11.0885 18.7792 0.0000 -10694.5395 1470.1765 0.0000 0.0000 1730.5629 -7454.8994 297.5261 -9185.4623 -7413.5174 296.8189 109.7911 248.3647 29764.4483 -29.9439 28.7856
ENERGY: 1200000 5.5299 8.2356 19.4269 0.0000 -10563.7038 1447.2465 0.0000 0.0000 1774.7539 -7308.5111 305.1236 -9083.2650 -7401.9018 298.4727 194.2535 179.1773 30094.8046 -51.8840 5.7180
ENERGY: 1500000 4.9446 15.4065 17.5397 0.0000 -10474.8438 1406.9018 0.0000 0.0000 1859.4787 -7170.5726 319.6899 -9030.0513 -7383.8312 300.3957 363.2190 417.3512 30235.5073 11.7416 71.9367
TCL: Running FEP window  11: Lambda1 0.49999999999999994 Lambda2 0.5499999999999999 [dLambda 0.04999999999999999]
TCL: Setting parameter firsttimestep to 0
TCL: Setting parameter alchLambda to 0.49999999999999994
Info: NONBONDED TABLE R-SQUARED SPACING: 0.0625
Info: NONBONDED TABLE SIZE: 705 POINTS
TCL: Setting parameter alchLambda2 to 0.5499999999999999
Info: NONBONDED TABLE R-SQUARED SPACING: 0.0625
Info: NONBONDED TABLE SIZE: 705 POINTS
TCL: Running for 1500000 steps
ETITLE: TS BOND ANGLE DIHED IMPRP ELECT VDW BOUNDARY MISC KINETIC TOTAL TEMP POTENTIAL TOTALAVG TEMPAVG PRESSURE GPRESSURE VOLUME PRESSAVG GPRESSAVG
ENERGY: 0 4.9446 15.4065 17.5397 0.0000 -10474.8429 1406.3620 0.0000 0.0000 1858.6368 -7171.9534 319.5451 -9030.5902 -7171.9534 319.5451 360.5002 425.1977 30235.5073 360.5002 425.1977
ENERGY: 300000 5.7823 10.1821 21.4592 0.0000 -10664.0864 1466.9508 0.0000 0.0000 1735.0136 -7424.6983 298.2913 -9159.7119 -7349.4595 303.7365 95.2986 81.0624 30527.2710 214.9503 240.3915
ENERGY: 600000 5.6042 13.6380 22.5320 0.0000 -10683.7089 1477.5205 0.0000 0.0000 1773.2301 -7391.1841 304.8616 -9164.4142 -7362.8742 303.0433 477.7198 572.9584 29598.2557 139.3945 185.7397
ENERGY: 900000 7.9612 14.1248 20.6776 0.0000 -10641.9499 1444.9780 0.0000 0.0000 1720.1467 -7434.0617 295.7353 -9154.2084 -7348.9439 303.6538 406.5560 388.7031 29731.9531 147.3162 200.5285
ENERGY: 1200000 6.4318 16.3443 23.8430 0.0000 -10481.6755 1364.3804 0.0000 0.0000 1774.0849 -7296.5911 305.0086 -9070.6760 -7351.2323 303.0356 -59.7109 -15.9965 29758.6911 34.6480 81.1668
ENERGY: 1500000 6.5153 16.6204 22.7176 0.0000 -10488.4421 1357.2381 0.0000 0.0000 1742.1565 -7343.1942 299.5193 -9085.3508 -7354.2650 302.2023 -496.7774 -427.7804 29931.9178 -114.9043 -69.2259
TCL: Running FEP window  12: Lambda1 0.5499999999999999 Lambda2 0.6    [dLambda 0.050000000000000044]
TCL: Setting parameter firsttimestep to 0
TCL: Setting parameter alchLambda to 0.5499999999999999
Info: NONBONDED TABLE R-SQUARED SPACING: 0.0625
Info: NONBONDED TABLE SIZE: 705 POINTS
TCL: Setting parameter alchLambda2 to 0.6
Info: NONBONDED TABLE R-SQUARED SPACING: 0.0625
Info: NONBONDED TABLE SIZE: 705 POINTS
TCL: Running for 1500000 steps
ETITLE: TS BOND ANGLE DIHED IMPRP ELECT VDW BOUNDARY MISC KINETIC TOTAL TEMP POTENTIAL TOTALAVG TEMPAVG PRESSURE GPRESSURE VOLUME PRESSAVG GPRESSAVG
ENERGY: 0 6.5153 16.6204 22.7176 0.0000 -10488.7525 1356.5314 0.0000 0.0000 1741.3018 -7345.0661 299.3724 -9086.3679 -7345.0661 299.3724 -518.4877 -425.2642 29931.9178 -518.4877 -425.2642
ENERGY: 300000 4.1092 14.4713 18.3931 0.0000 -10467.7785 1370.9228 0.0000 0.0000 1756.1734 -7303.7087 301.9292 -9059.8821 -7358.5497 300.3253 -355.0121 -303.1178 30078.0610 -51.3737 21.9212
ENERGY: 600000 7.4080 14.5495 20.8467 0.0000 -10704.0082 1509.0350 0.0000 0.0000 1750.0790 -7402.0900 300.8814 -9152.1690 -7360.9488 301.4478 611.6130 693.8565 29870.8273 -127.8809 -69.6670
ENERGY: 900000 3.2345 11.6590 19.6270 0.0000 -10505.5010 1372.3743 0.0000 0.0000 1758.2244 -7340.3819 302.2818 -9098.6063 -7354.0186 302.6744 -246.6451 -153.1043 30232.9591 -179.9986 -116.6817
ENERGY: 1200000 6.9271 15.3660 22.1293 0.0000 -10520.8611 1374.5643 0.0000 0.0000 1773.0724 -7328.8019 304.8345 -9101.8743 -7364.0383 301.8545 -480.8403 -410.4131 30211.9874 -181.8015 -114.6264
ENERGY: 1500000 7.5770 13.4513 21.6128 0.0000 -10421.5775 1344.0956 0.0000 0.0000 1705.3912 -7329.4496 293.1985 -9034.8408 -7362.6934 300.9115 -513.5841 -506.5393 30417.3328 -220.6115 -154.2908
TCL: Running FEP window  13: Lambda1 0.6    Lambda2 0.65   [dLambda 0.050000000000000044]
TCL: Setting parameter firsttimestep to 0
TCL: Setting parameter alchLambda to 0.6
Info: NONBONDED TABLE R-SQUARED SPACING: 0.0625
Info: NONBONDED TABLE SIZE: 705 POINTS
TCL: Setting parameter alchLambda2 to 0.65
Info: NONBONDED TABLE R-SQUARED SPACING: 0.0625
Info: NONBONDED TABLE SIZE: 705 POINTS
TCL: Running for 1500000 steps
ETITLE: TS BOND ANGLE DIHED IMPRP ELECT VDW BOUNDARY MISC KINETIC TOTAL TEMP POTENTIAL TOTALAVG TEMPAVG PRESSURE GPRESSURE VOLUME PRESSAVG GPRESSAVG
ENERGY: 0 7.5770 13.4513 21.6128 0.0000 -10421.8560 1343.3597 0.0000 0.0000 1704.5135 -7331.3417 293.0476 -9035.8552 -7331.3417 293.0476 -568.7680 -499.8273 30417.3328 -568.7680 -499.8273
ENERGY: 300000 6.8137 16.3209 21.0701 0.0000 -10777.5267 1532.3312 0.0000 0.0000 1773.3666 -7427.6241 304.8851 -9200.9907 -7379.1616 300.3045 792.0901 863.2275 29993.2063 114.2671 188.6129
ENERGY: 600000 5.3115 13.5814 16.1805 0.0000 -10459.3855 1361.7035 0.0000 0.0000 1749.4455 -7313.1630 300.7725 -9062.6085 -7358.1779 300.7616 -212.0591 -179.9316 30577.2775 22.4700 92.0627
ENERGY: 900000 5.3499 15.8118 21.2871 0.0000 -10585.0578 1386.5217 0.0000 0.0000 1789.2075 -7366.8797 307.6085 -9156.0873 -7367.1342 300.2863 -385.9016 -278.9775 29969.3016 -58.0403 21.6404
ENERGY: 1200000 1.9124 13.9492 23.9021 0.0000 -10544.7325 1412.6349 0.0000 0.0000 1766.2726 -7326.0613 303.6655 -9092.3339 -7363.0800 301.7668 -23.1204 26.4981 30247.0773 -108.7511 -32.7186
ENERGY: 1500000 3.9841 12.6016 17.3218 0.0000 -10462.9972 1334.2691 0.0000 0.0000 1695.5635 -7399.2572 291.5088 -9094.8207 -7365.3242 301.2956 -688.6812 -602.2838 30455.9245 -71.8579 4.5448
TCL: Running FEP window  14: Lambda1 0.65   Lambda2 0.7000000000000001 [dLambda 0.050000000000000044]
TCL: Setting parameter firsttimestep to 0
TCL: Setting parameter alchLambda to 0.65
Info: NONBONDED TABLE R-SQUARED SPACING: 0.0625
Info: NONBONDED TABLE SIZE: 705 POINTS
TCL: Setting parameter alchLambda2 to 0.7000000000000001
Info: NONBONDED TABLE R-SQUARED SPACING: 0.0625
Info: NONBONDED TABLE SIZE: 705 POINTS
TCL: Running for 1500000 steps
ETITLE: TS BOND ANGLE DIHED IMPRP ELECT VDW BOUNDARY MISC KINETIC TOTAL TEMP POTENTIAL TOTALAVG TEMPAVG PRESSURE GPRESSURE VOLUME PRESSAVG GPRESSAVG
ENERGY: 0 3.9841 12.6016 17.3218 0.0000 -10463.9690 1333.5193 0.0000 0.0000 1694.6487 -7401.8936 291.3516 -9096.5423 -7401.8936 291.3516 -689.0714 -597.1761 30455.9245 -689.0714 -597.1761
ENERGY: 300000 5.8019 13.0077 18.0049 0.0000 -10476.4898 1326.8595 0.0000 0.0000 1756.7794 -7356.0364 302.0333 -9112.8158 -7395.1915 298.7159 -756.3826 -668.0822 30309.3502 -553.9239 -472.0126
ENERGY: 600000 5.0535 16.8288 26.5512 0.0000 -10595.3123 1423.9668 0.0000 0.0000 1768.6502 -7354.2618 304.0742 -9122.9120 -7382.0466 299.6495 83.9588 175.9524 30182.3834 -207.7247 -126.6704
ENERGY: 900000 8.3140 9.4479 19.0834 0.0000 -10599.4753 1442.4893 0.0000 0.0000 1768.8510 -7351.2895 304.1088 -9120.1405 -7390.4586 298.9189 230.3393 273.4884 29712.2176 -234.0978 -164.5326
ENERGY: 1200000 6.0754 15.4747 20.3559 0.0000 -10658.9753 1437.4382 0.0000 0.0000 1777.5283 -7402.1027 305.6006 -9179.6311 -7389.6941 299.9886 183.4099 258.4674 29649.5067 -159.2455 -91.1732
ENERGY: 1500000 4.2106 9.1646 19.4436 0.0000 -10464.3189 1372.0748 0.0000 0.0000 1712.4422 -7346.9832 294.4107 -9059.4254 -7388.8168 299.1045 -35.0858 18.7389 30149.0857 -195.3511 -125.5835
TCL: Running FEP window  15: Lambda1 0.7000000000000001 Lambda2 0.7500000000000001 [dLambda 0.050000000000000044]
TCL: Setting parameter firsttimestep to 0
TCL: Setting parameter alchLambda to 0.7000000000000001
Info: NONBONDED TABLE R-SQUARED SPACING: 0.0625
Info: NONBONDED TABLE SIZE: 705 POINTS
TCL: Setting parameter alchLambda2 to 0.7500000000000001
Info: NONBONDED TABLE R-SQUARED SPACING: 0.0625
Info: NONBONDED TABLE SIZE: 705 POINTS
TCL: Running for 1500000 steps
ETITLE: TS BOND ANGLE DIHED IMPRP ELECT VDW BOUNDARY MISC KINETIC TOTAL TEMP POTENTIAL TOTALAVG TEMPAVG PRESSURE GPRESSURE VOLUME PRESSAVG GPRESSAVG
ENERGY: 0 4.2106 9.1646 19.4436 0.0000 -10465.3294 1371.7306 0.0000 0.0000 1711.5720 -7349.2080 294.2611 -9060.7800 -7349.2080 294.2611 -51.4876 29.6151 30149.0857 -51.4876 29.6151
ENERGY: 300000 8.9917 9.8194 27.3687 0.0000 -10622.6203 1492.1737 0.0000 0.0000 1804.7557 -7279.5111 310.2816 -9084.2668 -7347.9506 300.9423 571.9480 634.8225 30019.6237 208.8460 292.7598
ENERGY: 600000 5.7410 21.3659 20.9533 0.0000 -10685.4950 1524.1535 0.0000 0.0000 1717.6843 -7395.5971 295.3119 -9113.2813 -7361.6234 300.6621 1352.0902 1376.1070 29676.0371 254.7087 338.9182
ENERGY: 900000 7.2928 23.4740 17.9224 0.0000 -10570.3024 1389.1354 0.0000 0.0000 1712.5587 -7419.9190 294.4307 -9132.4777 -7373.8613 300.3090 -457.9968 -385.4782 29943.7690 184.7097 264.7476
ENERGY: 1200000 7.4855 16.6305 22.8237 0.0000 -10547.1782 1428.3164 0.0000 0.0000 1741.7050 -7330.2171 299.4417 -9071.9221 -7365.6160 300.5744 350.0267 386.9292 30125.4465 196.3164 271.4343
ENERGY: 1500000 5.0505 15.2561 22.5876 0.0000 -10646.7649 1493.5385 0.0000 0.0000 1796.7444 -7313.5877 308.9043 -9110.3321 -7370.1512 300.8282 907.1680 877.8161 29837.1145 179.1953 249.8423
TCL: Running FEP window  16: Lambda1 0.7500000000000001 Lambda2 0.8000000000000002 [dLambda 0.050000000000000044]
TCL: Setting parameter firsttimestep to 0
TCL: Setting parameter alchLambda to 0.7500000000000001
Info: NONBONDED TABLE R-SQUARED SPACING: 0.0625
Info: NONBONDED TABLE SIZE: 705 POINTS
TCL: Setting parameter alchLambda2 to 0.8000000000000002
Info: NONBONDED TABLE R-SQUARED SPACING: 0.0625
Info: NONBONDED TABLE SIZE: 705 POINTS
TCL: Running for 1500000 steps
ETITLE: TS BOND ANGLE DIHED IMPRP ELECT VDW BOUNDARY MISC KINETIC TOTAL TEMP POTENTIAL TOTALAVG TEMPAVG PRESSURE GPRESSURE VOLUME PRESSAVG GPRESSAVG
ENERGY: 0 5.0505 15.2561 22.5876 0.0000 -10647.1505 1494.1726 0.0000 0.0000 1795.8991 -7314.1845 308.7590 -9110.0836 -7314.1845 308.7590 816.1968 901.7265 29837.1145 816.1968 901.7265
ENERGY: 300000 4.9927 16.0678 19.7402 0.0000 -10719.0107 1443.8435 0.0000 0.0000 1779.7980 -7454.5685 305.9908 -9234.3665 -7386.9760 306.2560 16.4122 75.3923 29629.5787 303.0017 368.7150
ENERGY: 600000 5.1909 22.0477 21.2820 0.0000 -10528.5459 1406.9062 0.0000 0.0000 1700.3188 -7372.8003 292.3264 -9073.1191 -7399.8579 302.0085 130.1864 185.9601 29723.1530 174.0730 236.5316
ENERGY: 900000 4.4059 19.7803 20.9866 0.0000 -10695.5493 1416.4609 0.0000 0.0000 1750.3498 -7483.5658 300.9279 -9233.9155 -7402.0840 301.5795 41.7349 74.4614 29515.6423 203.2839 262.5741
ENERGY: 1200000 8.3606 9.6649 20.7318 0.0000 -10631.6498 1399.7644 0.0000 0.0000 1711.3719 -7481.7562 294.2267 -9193.1281 -7401.1184 300.8468 -41.5342 -17.6212 29514.6904 88.5604 146.5038
ENERGY: 1500000 6.9441 11.6280 21.2706 0.0000 -10445.3133 1358.6838 0.0000 0.0000 1761.7104 -7285.0764 302.8811 -9046.7867 -7391.1827 301.0854 -430.3644 -371.1566 30600.2293 -9.2082 48.6170
TCL: Running FEP window  17: Lambda1 0.8000000000000002 Lambda2 0.8500000000000002 [dLambda 0.050000000000000044]
TCL: Setting parameter firsttimestep to 0
TCL: Setting parameter alchLambda to 0.8000000000000002
Info: NONBONDED TABLE R-SQUARED SPACING: 0.0625
Info: NONBONDED TABLE SIZE: 705 POINTS
TCL: Setting parameter alchLambda2 to 0.8500000000000002
Info: NONBONDED TABLE R-SQUARED SPACING: 0.0625
Info: NONBONDED TABLE SIZE: 705 POINTS
TCL: Running for 1500000 steps
ETITLE: TS BOND ANGLE DIHED IMPRP ELECT VDW BOUNDARY MISC KINETIC TOTAL TEMP POTENTIAL TOTALAVG TEMPAVG PRESSURE GPRESSURE VOLUME PRESSAVG GPRESSAVG
ENERGY: 0 6.9441 11.6280 21.2706 0.0000 -10446.5529 1358.6090 0.0000 0.0000 1760.8723 -7287.2289 302.7370 -9048.1012 -7287.2289 302.7370 -440.2549 -357.6735 30600.2293 -440.2549 -357.6735
ENERGY: 300000 5.6229 15.7016 20.6495 0.0000 -10644.9768 1405.6079 0.0000 0.0000 1804.6744 -7392.7205 310.2677 -9197.3949 -7387.0612 300.2068 315.1330 346.8205 29114.9051 -21.6379 57.9388
ENERGY: 600000 9.6094 9.8981 23.8360 0.0000 -10647.0132 1458.9926 0.0000 0.0000 1693.3429 -7451.3343 291.1271 -9144.6772 -7396.8326 297.2430 216.4889 289.1691 30139.6062 -23.3124 57.2810
ENERGY: 900000 7.9944 13.1272 20.2714 0.0000 -10654.9176 1409.1480 0.0000 0.0000 1750.4921 -7453.8846 300.9524 -9204.3767 -7394.5521 297.8270 46.5106 3.4077 29933.5832 -30.4284 35.2239
ENERGY: 1200000 9.3991 11.5688 18.6375 0.0000 -10472.9812 1327.8902 0.0000 0.0000 1736.4493 -7369.0363 298.5381 -9105.4855 -7397.7762 297.9394 -720.0013 -679.3942 30602.1261 -86.5508 -21.5592
ENERGY: 1500000 4.9293 13.5825 21.4028 0.0000 -10414.4883 1274.9876 0.0000 0.0000 1748.8703 -7350.7158 300.6736 -9099.5861 -7390.3504 298.6822 -588.3296 -524.4604 29565.1682 -137.4814 -75.7442
TCL: Running FEP window  18: Lambda1 0.8500000000000002 Lambda2 0.9000000000000002 [dLambda 0.050000000000000044]
TCL: Setting parameter firsttimestep to 0
TCL: Setting parameter alchLambda to 0.8500000000000002
Info: NONBONDED TABLE R-SQUARED SPACING: 0.0625
Info: NONBONDED TABLE SIZE: 705 POINTS
TCL: Setting parameter alchLambda2 to 0.9000000000000002
Info: NONBONDED TABLE R-SQUARED SPACING: 0.0625
Info: NONBONDED TABLE SIZE: 705 POINTS
TCL: Running for 1500000 steps
ETITLE: TS BOND ANGLE DIHED IMPRP ELECT VDW BOUNDARY MISC KINETIC TOTAL TEMP POTENTIAL TOTALAVG TEMPAVG PRESSURE GPRESSURE VOLUME PRESSAVG GPRESSAVG
ENERGY: 0 4.9293 13.5825 21.4028 0.0000 -10416.0624 1274.7884 0.0000 0.0000 1748.0198 -7353.3396 300.5274 -9101.3594 -7353.3396 300.5274 -581.5304 -505.6916 29565.1682 -581.5304 -505.6916
ENERGY: 300000 6.8223 9.2597 20.2474 0.0000 -10562.7702 1420.6894 0.0000 0.0000 1752.4945 -7353.2569 301.2967 -9105.7514 -7379.0072 297.6859 129.0840 108.5488 30076.7160 -304.9809 -280.6161
ENERGY: 600000 7.4037 16.4841 20.8433 0.0000 -10391.1113 1286.4249 0.0000 0.0000 1706.9299 -7353.0253 293.4630 -9059.9552 -7385.3761 297.0320 -1135.7295 -1009.3151 30612.2546 -260.8729 -199.6562
ENERGY: 900000 6.7516 7.5805 27.0530 0.0000 -10581.5638 1398.5290 0.0000 0.0000 1700.0764 -7441.5733 292.2847 -9141.6497 -7377.5178 297.3112 -159.6832 -107.8937 30275.9233 -124.8013 -67.9611
ENERGY: 1200000 8.0200 11.0856 19.5610 0.0000 -10441.6265 1315.9899 0.0000 0.0000 1772.8974 -7314.0726 304.8044 -9086.9700 -7371.0087 298.0846 -833.6783 -819.2347 30289.7572 -186.3674 -139.3059
ENERGY: 1500000 4.7193 11.9433 25.6805 0.0000 -10555.7762 1424.3458 0.0000 0.0000 1757.0659 -7332.0214 302.0826 -9089.0873 -7381.8298 298.2347 180.2157 257.2059 30111.0931 -75.5498 -22.4860
TCL: Running FEP window  19: Lambda1 0.9000000000000002 Lambda2 0.9500000000000003 [dLambda 0.050000000000000044]
TCL: Setting parameter firsttimestep to 0
TCL: Setting parameter alchLambda to 0.9000000000000002
Info: NONBONDED TABLE R-SQUARED SPACING: 0.0625
Info: NONBONDED TABLE SIZE: 705 POINTS
TCL: Setting parameter alchLambda2 to 0.9500000000000003
Info: NONBONDED TABLE R-SQUARED SPACING: 0.0625
Info: NONBONDED TABLE SIZE: 705 POINTS
TCL: Running for 1500000 steps
ETITLE: TS BOND ANGLE DIHED IMPRP ELECT VDW BOUNDARY MISC KINETIC TOTAL TEMP POTENTIAL TOTALAVG TEMPAVG PRESSURE GPRESSURE VOLUME PRESSAVG GPRESSAVG
ENERGY: 0 4.7193 11.9432 25.6805 0.0000 -10558.3923 1424.6041 0.0000 0.0000 1756.2020 -7335.2432 301.9341 -9091.4452 -7335.2432 301.9341 176.7211 279.7925 30111.0931 176.7211 279.7925
ENERGY: 300000 2.6973 12.6282 16.6305 0.0000 -10595.0589 1386.3373 0.0000 0.0000 1749.2651 -7427.5003 300.7415 -9176.7655 -7402.1849 302.1826 -46.1256 11.9406 29811.4297 179.7692 236.9973
ENERGY: 600000 9.1922 14.4000 24.4359 0.0000 -10444.6922 1381.5245 0.0000 0.0000 1779.5131 -7235.6265 305.9418 -9015.1396 -7379.5762 301.4572 -4.6019 72.6638 30339.4907 61.7673 125.9627
ENERGY: 900000 3.7873 15.4824 21.4131 0.0000 -10550.3177 1365.3620 0.0000 0.0000 1745.8144 -7398.4584 300.1482 -9144.2728 -7396.3038 300.2925 -316.2828 -258.7916 29822.9017 59.2487 116.8059
ENERGY: 1200000 3.0748 15.0691 16.1691 0.0000 -10532.2245 1371.9524 0.0000 0.0000 1764.9734 -7360.9858 303.4421 -9125.9592 -7401.2932 301.0503 -555.5428 -426.4729 30431.4123 -57.2048 9.8818
ENERGY: 1500000 5.6575 10.7996 19.9490 0.0000 -10569.1959 1428.6759 0.0000 0.0000 1799.8364 -7304.2775 309.4359 -9104.1139 -7394.5510 300.9022 179.3740 266.8286 30167.5879 -37.7289 30.5885
TCL: Running FEP window  20: Lambda1 0.9500000000000003 Lambda2 1.0    [dLambda 0.04999999999999971]
TCL: Setting parameter firsttimestep to 0
TCL: Setting parameter alchLambda to 0.9500000000000003
Info: NONBONDED TABLE R-SQUARED SPACING: 0.0625
Info: NONBONDED TABLE SIZE: 705 POINTS
TCL: Setting parameter alchLambda2 to 1.0
Info: NONBONDED TABLE R-SQUARED SPACING: 0.0625
Info: NONBONDED TABLE SIZE: 705 POINTS
TCL: Running for 1500000 steps
ETITLE: TS BOND ANGLE DIHED IMPRP ELECT VDW BOUNDARY MISC KINETIC TOTAL TEMP POTENTIAL TOTALAVG TEMPAVG PRESSURE GPRESSURE VOLUME PRESSAVG GPRESSAVG
ENERGY: 0 5.6575 10.7996 19.9490 0.0000 -10571.9908 1430.2328 0.0000 0.0000 1798.9944 -7306.3576 309.2911 -9105.3520 -7306.3576 309.2911 215.2122 304.2110 30167.5879 215.2122 304.2110
ENERGY: 300000 5.3329 9.1730 23.3091 0.0000 -10659.2351 1396.6745 0.0000 0.0000 1729.5567 -7495.1888 297.3531 -9224.7455 -7377.9476 301.8170 -316.5497 -236.4591 29548.2348 -24.6656 68.8879
ENERGY: 600000 5.3018 15.7049 21.8718 0.0000 -10625.6438 1429.4651 0.0000 0.0000 1784.2195 -7369.0807 306.7510 -9153.3002 -7384.5193 301.3652 149.5964 226.2741 30251.6505 -84.1514 -0.8852
ENERGY: 900000 3.6690 12.9393 23.4295 0.0000 -10523.7685 1377.3394 0.0000 0.0000 1730.0449 -7376.3465 297.4370 -9106.3914 -7393.6795 300.8092 -272.1047 -133.5668 30257.4934 -166.1475 -79.9207
ENERGY: 1200000 3.5842 10.2480 25.8013 0.0000 -10586.5540 1401.4141 0.0000 0.0000 1685.8208 -7459.6857 289.8338 -9145.5065 -7398.3715 300.0100 203.5945 260.3128 29748.8474 -55.5444 20.4954
ENERGY: 1500000 12.3281 16.1571 20.1152 0.0000 -10494.2140 1373.3753 0.0000 0.0000 1698.6998 -7373.5385 292.0481 -9072.2383 -7400.3928 299.3468 -131.9025 -79.2617 29881.7345 4.3433 78.4195
TCL: Exiting due to exit command.
