Info: SIMULATION PARAMETERS:
Info: TIMESTEP               2
Info: NUMBER OF STEPS        0
Info: STEPS PER CYCLE        10
Info: PERIODIC CELL BASIS 1  30.2907 0 0
Info: PERIODIC CELL BASIS 2  0 28.4763 0
Info: PERIODIC CELL BASIS 3  0 0 35.0016
Info: PERIODIC CELL CENTER   0 0 0
Info: WRAPPING WATERS AROUND PERIODIC BOUNDARIES ON OUTPUT.
Info: WRAPPING ALL CLUSTERS AROUND PERIODIC BOUNDARIES ON OUTPUT.
Info: FIRST LDB TIMESTEP     50
Info: LAST LDB TIMESTEP     -1
Info: HOM BACKGROUND SCALING 1
Info: PME BACKGROUND SCALING 1
Info: MIN ATOMS PER PATCH    40
Info: EMPTY PATCH LOAD       40 ATOMS
Info: VELOCITY FILE          mobley_1592519_equil.vel
Info: CENTER OF MASS MOVING INITIALLY? NO
Info: DIELECTRIC             1
Info: EXCLUDE                SCALED ONE-FOUR
Info: 1-4 ELECTROSTATICS SCALED BY 0.833333
Info: MODIFIED 1-4 VDW PARAMETERS WILL BE USED
Info: DCD FILENAME           mobley_1592519_prod.dcd
Info: DCD FREQUENCY          100000
Info: DCD FIRST STEP         100000
Info: DCD FILE WILL CONTAIN UNIT CELL DATA
Info: XST FILENAME           mobley_1592519_prod.xst
Info: XST FREQUENCY          100000
Info: NO VELOCITY DCD OUTPUT
Info: NO FORCE DCD OUTPUT
Info: OUTPUT FILENAME        mobley_1592519_prod
Info: BINARY OUTPUT FILES WILL BE USED
Info: RESTART FILENAME       mobley_1592519_prod.restart
Info: RESTART FREQUENCY      100000
Info: BINARY RESTART FILES WILL BE USED
Info: CUTOFF                 9
Info: PAIRLIST DISTANCE      11
Info: PAIRLIST SHRINK RATE   0.01
Info: PAIRLIST GROW RATE     0.01
Info: PAIRLIST TRIGGER       0.3
Info: PAIRLISTS PER CYCLE    2
Info: PAIRLISTS ENABLED
Info: MARGIN                 2
Info: HYDROGEN GROUP CUTOFF  2.5
Info: PATCH DIMENSION        15.5
Info: ENERGY OUTPUT STEPS    100000
Info: ENERGY EVALUATION STEPS    100000
Info: OUTPUT ENERGY PRECISION 4
Info: CROSSTERM ENERGY INCLUDED IN DIHEDRAL
Info: TIMING OUTPUT STEPS    1000000
Info: PRESSURE OUTPUT STEPS  100000
Info: ALCHEMICAL FEP ON
Info: FEP CURRENT LAMBDA VALUE     0
Info: FEP COMPARISON LAMBDA VALUE  0.05
Info: FEP INTRA-ALCHEMICAL NON-BONDED INTERACTIONS WILL BE RETAINED
Info: FEP INTRA-ALCHEMICAL BONDED INTERACTIONS WILL BE RETAINED
Info: FEP VDW SHIFTING COEFFICIENT 5
Info: FEP ELEC. ACTIVE FOR ANNIHILATED PARTICLES BETWEEN LAMBDA = 0 AND LAMBDA = 0.5
Info: FEP ELEC. ACTIVE FOR EXNIHILATED PARTICLES BETWEEN LAMBDA = 0.5 AND LAMBDA = 1
Info: FEP VDW ACTIVE FOR ANNIHILATED PARTICLES BETWEEN LAMBDA = 0 AND LAMBDA = 1
Info: FEP VDW ACTIVE FOR EXNIHILATED PARTICLES BETWEEN LAMBDA = 0 AND LAMBDA = 1
Info: FEP BOND ACTIVE FOR ANNIHILATED PARTICLES BETWEEN LAMBDA = 1 AND LAMBDA = 1
Info: FEP BOND ACTIVE FOR EXNIHILATED PARTICLES BETWEEN LAMBDA = 0 AND LAMBDA = 0
Info: LANGEVIN DYNAMICS ACTIVE
Info: LANGEVIN TEMPERATURE   300
Info: LANGEVIN USING BBK INTEGRATOR
Info: LANGEVIN DAMPING COEFFICIENT IS 1 INVERSE PS
Info: LANGEVIN DYNAMICS APPLIED TO HYDROGENS
Info: LANGEVIN PISTON PRESSURE CONTROL ACTIVE
Info:        TARGET PRESSURE IS 1.01325 BAR
Info:     OSCILLATION PERIOD IS 50 FS
Info:             DECAY TIME IS 25 FS
Info:     PISTON TEMPERATURE IS 300 K
Info:       PRESSURE CONTROL IS GROUP-BASED
Info:    INITIAL STRAIN RATE IS -0.000217537 -0.000217537 -0.000217537
Info:       CELL FLUCTUATION IS ISOTROPIC
Info: PARTICLE MESH EWALD (PME) ACTIVE
Info: PME TOLERANCE               1e-06
Info: PME EWALD COEFFICIENT       0.348832
Info: PME INTERPOLATION ORDER     4
Info: PME GRID DIMENSIONS         32 32 36
Info: PME MAXIMUM GRID SPACING    1
Info: PME CALCULATION WILL BE PERFORMED ON GPU
Info: FULL ELECTROSTATIC EVALUATION FREQUENCY      2
Info: USING VERLET I (r-RESPA) MTS SCHEME.
Info: C1 SPLITTING OF LONG RANGE ELECTROSTATICS
Info: PLACING ATOMS IN PATCHES BY HYDROGEN GROUPS
Info: RIGID BONDS TO HYDROGEN : ALL
Info:         ERROR TOLERANCE : 1e-08
Info:          MAX ITERATIONS : 100
Info: RIGID WATER USING SETTLE ALGORITHM
Info: RANDOM NUMBER SEED     1744023833
Info: USE HYDROGEN BONDS?    NO
Info: Using AMBER format force field!
Info: AMBER PARM FILE        mobley_1592519.prmtop
Info: COORDINATE PDB         mobley_1592519.pdb
Info: Exclusions will be read from PARM file!
Info: SCNB (VDW SCALING)     2
Info: USING ARITHMETIC MEAN TO COMBINE L-J SIGMA PARAMETERS
Info: BINARY COORDINATES     mobley_1592519_equil.coor
Info: SUMMARY OF PARAMETERS:
Info: 9 BONDS
Info: 13 ANGLES
Info:   13 HARMONIC
Info:   0 COSINE-BASED
Info: 20 DIHEDRAL
Info: 0 IMPROPER
Info: 0 CROSSTERM
Info: 0 VDW
Info: 36 VDW_PAIRS
Info: 0 NBTHOLE_PAIRS
Info: To read alchdata from file: mobley_1592519.pdb
Info: To read alchflag data from column: 5
Info: STRUCTURE SUMMARY:
Info: 2927 ATOMS
Info: 2926 BONDS
Info: 46 ANGLES
Info: 72 DIHEDRALS
Info: 0 IMPROPERS
Info: 0 CROSSTERMS
Info: 3028 EXCLUSIONS
Info: 2917 RIGID BONDS
Info: ALCH: 0 ATOMS TO DISAPPEAR IN FINAL STATE
Info: ALCH: 26 ATOMS TO APPEAR IN FINAL STATE
Info: 5864 DEGREES OF FREEDOM
Info: 977 HYDROGEN GROUPS
Info: 4 ATOMS IN LARGEST HYDROGEN GROUP
Info: 977 MIGRATION GROUPS
Info: 4 ATOMS IN LARGEST MIGRATION GROUP
Info: TOTAL MASS = 17565.7 amu
Info: TOTAL CHARGE = -0.000200029 e
Info: MASS DENSITY = 0.966148 g/cm^3
Info: ATOM DENSITY = 0.0969487 atoms/A^3
Info: ADDED 0 IMPLICIT EXCLUSIONS
Info: NONBONDED TABLE R-SQUARED SPACING: 0.0625
Info: NONBONDED TABLE SIZE: 705 POINTS
Info: REMOVING COM VELOCITY 0.179633 -0.151455 -0.0247325
Info: Use 3D box decompostion in PME FFT.
Info: Updated CUDA force table with 4096 elements.
Info: Updated CUDA LJ table with 8 x 8 elements.
Info: Found 27 unique exclusion lists needing 92 bytes
TCL: Running for 1500000 steps
ETITLE: TS BOND ANGLE DIHED IMPRP ELECT VDW BOUNDARY MISC KINETIC TOTAL TEMP POTENTIAL TOTALAVG TEMPAVG PRESSURE GPRESSURE VOLUME PRESSAVG GPRESSAVG
ENERGY: 0 2.0717 15.8375 7.0526 0.0000 -10604.3971 1443.7586 0.0000 0.0000 1740.8019 -7394.8747 298.7761 -9135.6767 -7394.8747 298.7761 -61.3282 27.0308 30191.2234 -61.3282 27.0308
ENERGY: 300000 3.1674 7.8172 7.0788 0.0000 -10551.5944 1430.5715 0.0000 0.0000 1788.4919 -7314.4676 306.9611 -9102.9595 -7378.4909 300.3211 109.9735 214.3580 29802.2829 -17.5364 57.7689
ENERGY: 600000 2.5129 8.2128 6.5614 0.0000 -10591.3735 1479.5584 0.0000 0.0000 1787.8094 -7306.7186 306.8440 -9094.5280 -7377.3680 301.4266 273.9714 292.4276 30457.6676 17.2795 89.2640
ENERGY: 900000 1.7163 8.2604 6.5977 0.0000 -10580.0760 1352.5321 0.0000 0.0000 1768.9787 -7441.9908 303.6121 -9210.9695 -7385.3764 301.4838 -794.4236 -742.3020 29740.6257 -136.3759 -64.5146
ENERGY: 1200000 2.0742 15.1979 5.1311 0.0000 -10479.7818 1354.4593 0.0000 0.0000 1749.9001 -7353.0192 300.3376 -9102.9193 -7375.7568 301.2719 -462.7624 -380.7623 29679.3760 -142.8775 -63.6794
ENERGY: 1500000 1.8972 13.5742 7.6784 0.0000 -10494.0475 1295.7610 0.0000 0.0000 1702.6761 -7472.4606 292.2325 -9175.1367 -7385.4091 300.9066 -1190.6290 -1170.3053 29787.4879 -231.5381 -156.6457
TCL: Running FEP window   2: Lambda1 0.05   Lambda2 0.1    [dLambda 0.05  ]
TCL: Setting parameter firsttimestep to 0
TCL: Setting parameter alchLambda to 0.05
Info: NONBONDED TABLE R-SQUARED SPACING: 0.0625
Info: NONBONDED TABLE SIZE: 705 POINTS
TCL: Setting parameter alchLambda2 to 0.1
Info: NONBONDED TABLE R-SQUARED SPACING: 0.0625
Info: NONBONDED TABLE SIZE: 705 POINTS
TCL: Running for 1500000 steps
ETITLE: TS BOND ANGLE DIHED IMPRP ELECT VDW BOUNDARY MISC KINETIC TOTAL TEMP POTENTIAL TOTALAVG TEMPAVG PRESSURE GPRESSURE VOLUME PRESSAVG GPRESSAVG
ENERGY: 0 1.8971 13.5742 7.6784 0.0000 -10494.0476 1299.3947 0.0000 0.0000 1701.7711 -7469.7319 292.0771 -9171.5031 -7469.7319 292.0771 -1238.1024 -1158.2129 29787.4879 -1238.1024 -1158.2129
ENERGY: 300000 1.6751 11.4164 9.5296 0.0000 -10526.3270 1387.3498 0.0000 0.0000 1791.1426 -7325.2135 307.4161 -9116.3560 -7415.5049 296.9635 -312.6501 -237.7842 30082.8461 -290.5493 -244.5247
ENERGY: 600000 4.1510 13.2852 8.5587 0.0000 -10441.2850 1308.4874 0.0000 0.0000 1730.9183 -7375.8844 297.0797 -9106.8027 -7377.1517 300.1139 -1421.0395 -1379.4450 30469.8335 -273.3975 -238.5151
ENERGY: 900000 3.3014 17.7534 6.4044 0.0000 -10487.9123 1384.3333 0.0000 0.0000 1753.0537 -7323.0662 300.8788 -9076.1198 -7362.2405 300.6543 -11.2601 3.8566 29933.8964 -311.6941 -276.0420
ENERGY: 1200000 1.5423 12.4293 5.6156 0.0000 -10549.9713 1388.2734 0.0000 0.0000 1774.2672 -7367.8435 304.5197 -9142.1106 -7361.5962 300.4233 -402.8961 -311.1947 30194.3292 -245.7949 -202.3643
ENERGY: 1500000 4.2841 15.9417 5.5127 0.0000 -10516.2328 1413.2914 0.0000 0.0000 1693.9560 -7383.2469 290.7358 -9077.2030 -7368.1711 300.0654 -161.9064 -87.5411 30308.0145 -214.0547 -167.7190
TCL: Running FEP window   3: Lambda1 0.1    Lambda2 0.15000000000000002 [dLambda 0.05000000000000002]
TCL: Setting parameter firsttimestep to 0
TCL: Setting parameter alchLambda to 0.1
Info: NONBONDED TABLE R-SQUARED SPACING: 0.0625
Info: NONBONDED TABLE SIZE: 705 POINTS
TCL: Setting parameter alchLambda2 to 0.15000000000000002
Info: NONBONDED TABLE R-SQUARED SPACING: 0.0625
Info: NONBONDED TABLE SIZE: 705 POINTS
TCL: Running for 1500000 steps
ETITLE: TS BOND ANGLE DIHED IMPRP ELECT VDW BOUNDARY MISC KINETIC TOTAL TEMP POTENTIAL TOTALAVG TEMPAVG PRESSURE GPRESSURE VOLUME PRESSAVG GPRESSAVG
ENERGY: 0 4.2841 15.9417 5.5127 0.0000 -10516.2324 1417.2008 0.0000 0.0000 1693.0989 -7380.1942 290.5887 -9073.2931 -7380.1942 290.5887 -162.4755 -77.2157 30308.0145 -162.4755 -77.2157
ENERGY: 300000 1.8818 14.8670 5.1197 0.0000 -10486.6767 1403.3986 0.0000 0.0000 1752.0182 -7309.3913 300.7011 -9061.4095 -7339.7993 299.8396 83.9456 112.3448 29825.7404 -162.9776 -108.2904
ENERGY: 600000 2.5834 12.2505 6.4953 0.0000 -10786.5382 1496.0750 0.0000 0.0000 1772.8982 -7496.2358 304.2848 -9269.1340 -7405.6175 298.0048 366.3493 402.2074 29604.7799 -168.4274 -125.1021
ENERGY: 900000 1.5406 12.7411 5.8052 0.0000 -10734.4205 1522.0514 0.0000 0.0000 1768.7015 -7423.5808 303.5645 -9192.2822 -7395.7063 299.9707 587.3625 614.6181 29961.9886 -91.0784 -39.8782
ENERGY: 1200000 2.6518 13.9744 7.4396 0.0000 -10475.1656 1351.0639 0.0000 0.0000 1719.7374 -7380.2984 295.1607 -9100.0358 -7394.6137 299.7592 -594.3083 -514.8339 29815.9999 -162.5491 -107.7666
ENERGY: 1500000 3.6736 14.0862 6.4937 0.0000 -10603.1989 1384.5519 0.0000 0.0000 1694.7015 -7499.6920 290.8638 -9194.3935 -7403.4267 299.0993 -927.1262 -835.4688 30258.2845 -190.6618 -129.8113
TCL: Running FEP window   4: Lambda1 0.15000000000000002 Lambda2 0.2    [dLambda 0.04999999999999999]
TCL: Setting parameter firsttimestep to 0
TCL: Setting parameter alchLambda to 0.15000000000000002
Info: NONBONDED TABLE R-SQUARED SPACING: 0.0625
Info: NONBONDED TABLE SIZE: 705 POINTS
TCL: Setting parameter alchLambda2 to 0.2
Info: NONBONDED TABLE R-SQUARED SPACING: 0.0625
Info: NONBONDED TABLE SIZE: 705 POINTS
TCL: Running for 1500000 steps
ETITLE: TS BOND ANGLE DIHED IMPRP ELECT VDW BOUNDARY MISC KINETIC TOTAL TEMP POTENTIAL TOTALAVG TEMPAVG PRESSURE GPRESSURE VOLUME PRESSAVG GPRESSAVG
ENERGY: 0 3.6736 14.0862 6.4937 0.0000 -10603.2013 1386.3536 0.0000 0.0000 1693.8305 -7498.7637 290.7143 -9192.5942 -7498.7637 290.7143 -911.3486 -824.8048 30258.2845 -911.3486 -824.8048
ENERGY: 300000 3.8809 10.6934 6.7156 0.0000 -10645.4096 1455.0560 0.0000 0.0000 1790.6880 -7378.3757 307.3381 -9169.0637 -7454.7510 295.8475 79.2398 221.4900 29799.2454 -266.6243 -153.9905
ENERGY: 600000 2.0919 13.6723 4.8648 0.0000 -10447.2939 1344.9985 0.0000 0.0000 1773.6239 -7308.0425 304.4093 -9081.6664 -7405.7065 298.1960 -142.3587 -124.0636 29784.4415 -159.3362 -80.4978
ENERGY: 900000 2.0572 14.0695 5.7536 0.0000 -10471.6245 1321.3050 0.0000 0.0000 1734.5255 -7393.9137 297.6988 -9128.4392 -7400.9792 299.1425 -916.4116 -845.3807 30432.2681 -196.7143 -120.4545
ENERGY: 1200000 1.3773 13.6031 6.7786 0.0000 -10662.7770 1496.1568 0.0000 0.0000 1801.8677 -7342.9935 309.2569 -9144.8612 -7389.9522 300.2377 599.7105 645.1689 29862.2737 -84.7573 -2.3428
ENERGY: 1500000 2.0831 17.5533 6.8559 0.0000 -10658.0101 1498.2730 0.0000 0.0000 1764.7972 -7368.4477 302.8944 -9133.2448 -7386.1731 300.4626 453.5657 501.6080 30110.6014 7.6395 92.3510
TCL: Running FEP window   5: Lambda1 0.2    Lambda2 0.25   [dLambda 0.04999999999999999]
TCL: Setting parameter firsttimestep to 0
TCL: Setting parameter alchLambda to 0.2
Info: NONBONDED TABLE R-SQUARED SPACING: 0.0625
Info: NONBONDED TABLE SIZE: 705 POINTS
TCL: Setting parameter alchLambda2 to 0.25
Info: NONBONDED TABLE R-SQUARED SPACING: 0.0625
Info: NONBONDED TABLE SIZE: 705 POINTS
TCL: Running for 1500000 steps
ETITLE: TS BOND ANGLE DIHED IMPRP ELECT VDW BOUNDARY MISC KINETIC TOTAL TEMP POTENTIAL TOTALAVG TEMPAVG PRESSURE GPRESSURE VOLUME PRESSAVG GPRESSAVG
ENERGY: 0 2.0831 17.5533 6.8559 0.0000 -10658.0093 1500.7255 0.0000 0.0000 1763.9241 -7366.8674 302.7445 -9130.7915 -7366.8674 302.7445 448.8647 515.0756 30110.6014 448.8647 515.0756
ENERGY: 300000 3.4340 11.0666 6.0381 0.0000 -10611.2154 1469.4123 0.0000 0.0000 1762.8828 -7358.3817 302.5658 -9121.2645 -7359.0458 302.7743 306.6873 360.1485 29863.5551 0.1135 68.8481
ENERGY: 600000 3.0412 13.1234 10.0352 0.0000 -10627.9254 1470.5113 0.0000 0.0000 1775.8919 -7355.3224 304.7986 -9131.2143 -7362.7833 301.8975 583.3669 610.7093 29821.9832 2.2375 66.0669
ENERGY: 900000 3.0586 11.5074 7.0581 0.0000 -10552.8844 1474.4430 0.0000 0.0000 1764.0915 -7292.7258 302.7733 -9056.8174 -7364.0334 301.3639 494.1665 539.8833 30295.6923 111.8485 162.9147
ENERGY: 1200000 2.7820 11.9097 4.8005 0.0000 -10529.9904 1381.1840 0.0000 0.0000 1700.3710 -7428.9431 291.8368 -9129.3142 -7373.2271 300.1160 -614.0632 -578.5309 30555.5393 -30.2014 21.4478
ENERGY: 1500000 1.2665 10.9804 6.7808 0.0000 -10614.3444 1467.0858 0.0000 0.0000 1678.8695 -7449.3614 288.1465 -9128.2308 -7372.5840 299.8386 9.7778 131.3590 30250.2588 -5.2500 53.0196
TCL: Running FEP window   6: Lambda1 0.25   Lambda2 0.3    [dLambda 0.04999999999999999]
TCL: Setting parameter firsttimestep to 0
TCL: Setting parameter alchLambda to 0.25
Info: NONBONDED TABLE R-SQUARED SPACING: 0.0625
Info: NONBONDED TABLE SIZE: 705 POINTS
TCL: Setting parameter alchLambda2 to 0.3
Info: NONBONDED TABLE R-SQUARED SPACING: 0.0625
Info: NONBONDED TABLE SIZE: 705 POINTS
TCL: Running for 1500000 steps
ETITLE: TS BOND ANGLE DIHED IMPRP ELECT VDW BOUNDARY MISC KINETIC TOTAL TEMP POTENTIAL TOTALAVG TEMPAVG PRESSURE GPRESSURE VOLUME PRESSAVG GPRESSAVG
ENERGY: 0 1.2665 10.9804 6.7808 0.0000 -10614.3451 1468.6408 0.0000 0.0000 1677.9820 -7448.6946 287.9942 -9126.6766 -7448.6946 287.9942 55.1632 145.0660 30250.2588 55.1632 145.0660
ENERGY: 300000 2.0591 7.1836 8.1550 0.0000 -10514.5692 1400.3830 0.0000 0.0000 1702.9821 -7393.8064 292.2850 -9096.7885 -7394.0759 296.5161 -175.4373 -90.3389 30249.0741 -104.9707 -36.5938
ENERGY: 600000 4.4404 10.7952 6.4886 0.0000 -10574.1764 1426.6682 0.0000 0.0000 1761.1546 -7364.6295 302.2692 -9125.7841 -7357.2809 299.1711 79.0810 112.6679 29713.6620 -49.7154 8.9405
ENERGY: 900000 3.7535 12.6621 5.3803 0.0000 -10454.4607 1385.8680 0.0000 0.0000 1747.0921 -7299.7046 299.8556 -9046.7968 -7366.0497 299.4734 -181.1878 -111.8231 29924.6057 3.6191 63.0725
ENERGY: 1200000 2.6857 11.2354 8.8395 0.0000 -10541.8460 1428.4068 0.0000 0.0000 1730.1312 -7360.5474 296.9446 -9090.6786 -7376.4733 299.3319 236.2451 314.3977 29680.0244 27.4653 83.8018
ENERGY: 1500000 5.0465 14.0192 7.1445 0.0000 -10622.2371 1499.3644 0.0000 0.0000 1731.8706 -7364.7920 297.2432 -9096.6625 -7373.8417 299.5773 558.1297 634.0878 29591.6154 -35.0514 26.1078
TCL: Running FEP window   7: Lambda1 0.3    Lambda2 0.35   [dLambda 0.04999999999999999]
TCL: Setting parameter firsttimestep to 0
TCL: Setting parameter alchLambda to 0.3
Info: NONBONDED TABLE R-SQUARED SPACING: 0.0625
Info: NONBONDED TABLE SIZE: 705 POINTS
TCL: Setting parameter alchLambda2 to 0.35
Info: NONBONDED TABLE R-SQUARED SPACING: 0.0625
Info: NONBONDED TABLE SIZE: 705 POINTS
TCL: Running for 1500000 steps
ETITLE: TS BOND ANGLE DIHED IMPRP ELECT VDW BOUNDARY MISC KINETIC TOTAL TEMP POTENTIAL TOTALAVG TEMPAVG PRESSURE GPRESSURE VOLUME PRESSAVG GPRESSAVG
ENERGY: 0 5.0465 14.0192 7.1445 0.0000 -10622.2354 1500.3508 0.0000 0.0000 1730.9946 -7364.6798 297.0928 -9095.6744 -7364.6798 297.0928 564.9293 644.7709 29591.6154 564.9293 644.7709
ENERGY: 300000 0.9882 10.5292 7.5182 0.0000 -10620.8049 1434.2748 0.0000 0.0000 1777.2467 -7390.2479 305.0311 -9167.4946 -7386.5072 302.0046 -123.8649 -61.4352 30302.0818 -283.3224 -211.3702
ENERGY: 600000 2.5511 16.8207 5.6471 0.0000 -10577.0095 1429.7275 0.0000 0.0000 1693.4497 -7428.8134 290.6489 -9122.2631 -7406.5293 299.4229 194.9706 257.6388 29788.2417 8.7879 75.1208
ENERGY: 900000 3.2834 10.6741 7.9930 0.0000 -10565.1538 1455.9706 0.0000 0.0000 1735.9803 -7351.2522 297.9485 -9087.2326 -7391.7285 298.8793 616.3957 729.1818 29394.8075 20.8316 91.9677
ENERGY: 1200000 1.9368 11.6516 7.4697 0.0000 -10596.0514 1410.2241 0.0000 0.0000 1732.2707 -7432.4984 297.3118 -9164.7691 -7368.7584 300.3076 -101.2582 -76.7678 29721.3036 -5.0591 54.9404
ENERGY: 1500000 4.1091 13.2367 10.3699 0.0000 -10660.8546 1425.8065 0.0000 0.0000 1791.7454 -7415.5870 307.5195 -9207.3324 -7380.2588 299.8164 -400.5286 -293.7922 29898.9672 -55.4112 6.8319
TCL: Running FEP window   8: Lambda1 0.35   Lambda2 0.39999999999999997 [dLambda 0.04999999999999999]
TCL: Setting parameter firsttimestep to 0
TCL: Setting parameter alchLambda to 0.35
Info: NONBONDED TABLE R-SQUARED SPACING: 0.0625
Info: NONBONDED TABLE SIZE: 705 POINTS
TCL: Setting parameter alchLambda2 to 0.39999999999999997
Info: NONBONDED TABLE R-SQUARED SPACING: 0.0625
Info: NONBONDED TABLE SIZE: 705 POINTS
TCL: Running for 1500000 steps
ETITLE: TS BOND ANGLE DIHED IMPRP ELECT VDW BOUNDARY MISC KINETIC TOTAL TEMP POTENTIAL TOTALAVG TEMPAVG PRESSURE GPRESSURE VOLUME PRESSAVG GPRESSAVG
ENERGY: 0 4.1091 13.2366 10.3699 0.0000 -10660.8544 1426.5452 0.0000 0.0000 1790.8779 -7415.7156 307.3707 -9206.5935 -7415.7156 307.3707 -373.4517 -283.4700 29898.9672 -373.4517 -283.4700
ENERGY: 300000 4.6090 14.2712 6.8086 0.0000 -10740.4973 1548.9343 0.0000 0.0000 1713.8659 -7452.0083 294.1530 -9165.8742 -7409.6364 305.5229 1084.9870 1191.6797 29431.3141 77.0663 150.9060
ENERGY: 600000 1.8653 14.7806 9.3037 0.0000 -10509.6230 1379.6642 0.0000 0.0000 1766.2731 -7337.7362 303.1477 -9104.0092 -7397.1317 302.9702 -314.8475 -247.4981 30116.2580 -47.2361 29.6010
ENERGY: 900000 6.1869 9.5664 7.8651 0.0000 -10611.9729 1404.9397 0.0000 0.0000 1765.1185 -7418.2963 302.9495 -9183.4147 -7402.6880 303.1327 -360.1412 -322.7389 30054.2668 -138.0745 -66.2592
ENERGY: 1200000 2.3256 10.2242 8.1640 0.0000 -10582.8070 1471.4118 0.0000 0.0000 1740.6907 -7349.9906 298.7570 -9090.6813 -7398.5099 301.5324 428.3819 459.7975 30309.8409 -152.6054 -79.3083
ENERGY: 1500000 5.0377 11.9167 7.6522 0.0000 -10517.7325 1393.5403 0.0000 0.0000 1769.0164 -7330.5691 303.6185 -9099.5855 -7392.1290 302.0098 -301.2645 -270.8680 30588.5179 -95.1752 -30.5636
TCL: Running FEP window   9: Lambda1 0.39999999999999997 Lambda2 0.44999999999999996 [dLambda 0.04999999999999999]
TCL: Setting parameter firsttimestep to 0
TCL: Setting parameter alchLambda to 0.39999999999999997
Info: NONBONDED TABLE R-SQUARED SPACING: 0.0625
Info: NONBONDED TABLE SIZE: 705 POINTS
TCL: Setting parameter alchLambda2 to 0.44999999999999996
Info: NONBONDED TABLE R-SQUARED SPACING: 0.0625
Info: NONBONDED TABLE SIZE: 705 POINTS
TCL: Running for 1500000 steps
ETITLE: TS BOND ANGLE DIHED IMPRP ELECT VDW BOUNDARY MISC KINETIC TOTAL TEMP POTENTIAL TOTALAVG TEMPAVG PRESSURE GPRESSURE VOLUME PRESSAVG GPRESSAVG
ENERGY: 0 5.0377 11.9167 7.6522 0.0000 -10517.7314 1393.1923 0.0000 0.0000 1768.1586 -7331.7740 303.4713 -9099.9326 -7331.7740 303.4713 -340.8886 -266.2703 30588.5179 -340.8886 -266.2703
ENERGY: 300000 3.8645 18.5407 7.2690 0.0000 -10478.6939 1424.9280 0.0000 0.0000 1786.7808 -7237.3109 306.6675 -9024.0916 -7299.4906 304.5797 -28.6812 103.8265 30505.9986 -259.1200 -190.7618
ENERGY: 600000 2.7455 6.3581 6.8248 0.0000 -10629.2151 1442.0270 0.0000 0.0000 1753.0955 -7418.1641 300.8860 -9171.2597 -7342.6608 303.0431 65.3279 62.3813 29982.7181 -21.6801 36.6563
ENERGY: 900000 2.1759 11.5470 5.7266 0.0000 -10517.0177 1412.3537 0.0000 0.0000 1767.0797 -7318.1347 303.2861 -9085.2143 -7346.1398 301.6570 13.5869 68.1953 30105.6337 -56.2658 3.4628
ENERGY: 1200000 0.2203 18.1011 6.7252 0.0000 -10705.7916 1477.0664 0.0000 0.0000 1747.0052 -7456.6734 299.8407 -9203.6786 -7358.2616 301.4059 486.6374 454.8836 29554.7815 25.4265 80.7506
ENERGY: 1500000 2.4882 12.1343 5.2782 0.0000 -10471.3723 1364.2513 0.0000 0.0000 1824.8110 -7262.4092 313.1946 -9087.2202 -7357.2823 301.5864 -625.7218 -578.3811 30885.4757 63.0029 114.7763
TCL: Running FEP window  10: Lambda1 0.44999999999999996 Lambda2 0.49999999999999994 [dLambda 0.04999999999999999]
TCL: Setting parameter firsttimestep to 0
TCL: Setting parameter alchLambda to 0.44999999999999996
Info: NONBONDED TABLE R-SQUARED SPACING: 0.0625
Info: NONBONDED TABLE SIZE: 705 POINTS
TCL: Setting parameter alchLambda2 to 0.49999999999999994
Info: NONBONDED TABLE R-SQUARED SPACING: 0.0625
Info: NONBONDED TABLE SIZE: 705 POINTS
TCL: Running for 1500000 steps
ETITLE: TS BOND ANGLE DIHED IMPRP ELECT VDW BOUNDARY MISC KINETIC TOTAL TEMP POTENTIAL TOTALAVG TEMPAVG PRESSURE GPRESSURE VOLUME PRESSAVG GPRESSAVG
ENERGY: 0 2.4882 12.1343 5.2782 0.0000 -10471.3716 1364.2948 0.0000 0.0000 1823.9490 -7263.2270 313.0467 -9087.1760 -7263.2270 313.0467 -653.7283 -573.0885 30885.4757 -653.7283 -573.0885
ENERGY: 300000 2.5915 12.8294 9.3311 0.0000 -10616.5083 1441.2162 0.0000 0.0000 1723.3724 -7427.1678 295.7846 -9150.5402 -7353.7571 304.7060 -147.8432 -136.9327 30280.1275 322.4726 393.6542
ENERGY: 600000 4.0864 20.3321 7.5487 0.0000 -10460.5609 1353.8032 0.0000 0.0000 1749.9667 -7324.8237 300.3490 -9074.7904 -7321.6734 306.1625 -402.8550 -359.4141 30324.0806 215.8525 279.2052
ENERGY: 900000 2.1934 9.0476 8.0068 0.0000 -10387.8506 1336.0527 0.0000 0.0000 1779.8394 -7252.7106 305.4761 -9032.5500 -7330.2342 303.9971 -276.5065 -250.5229 30188.8014 -12.1732 51.7417
ENERGY: 1200000 3.0482 15.3261 8.5408 0.0000 -10501.7213 1340.9337 0.0000 0.0000 1761.0497 -7372.8229 302.2512 -9133.8725 -7345.9686 302.6033 -706.7879 -634.2567 30115.9468 -142.4888 -78.1857
ENERGY: 1500000 3.2902 16.9905 6.0037 0.0000 -10730.7068 1491.1352 0.0000 0.0000 1838.9810 -7374.3062 315.6267 -9213.2872 -7358.0878 302.8360 268.7808 334.1003 30061.8046 -92.2107 -29.6892
TCL: Running FEP window  11: Lambda1 0.49999999999999994 Lambda2 0.5499999999999999 [dLambda 0.04999999999999999]
TCL: Setting parameter firsttimestep to 0
TCL: Setting parameter alchLambda to 0.49999999999999994
Info: NONBONDED TABLE R-SQUARED SPACING: 0.0625
Info: NONBONDED TABLE SIZE: 705 POINTS
TCL: Setting parameter alchLambda2 to 0.5499999999999999
Info: NONBONDED TABLE R-SQUARED SPACING: 0.0625
Info: NONBONDED TABLE SIZE: 705 POINTS
TCL: Running for 1500000 steps
ETITLE: TS BOND ANGLE DIHED IMPRP ELECT VDW BOUNDARY MISC KINETIC TOTAL TEMP POTENTIAL TOTALAVG TEMPAVG PRESSURE GPRESSURE VOLUME PRESSAVG GPRESSAVG
ENERGY: 0 3.2902 16.9905 6.0037 0.0000 -10730.7079 1491.7802 0.0000 0.0000 1838.1272 -7374.5161 315.4801 -9212.6432 -7374.5161 315.4801 261.6085 347.2657 30061.8046 261.6085 347.2657
ENERGY: 300000 2.5223 12.9497 11.1498 0.0000 -10710.2793 1534.0338 0.0000 0.0000 1726.0775 -7423.5461 296.2489 -9149.6236 -7368.0101 304.2148 941.3124 980.7725 29658.9953 350.0055 405.9138
ENERGY: 600000 3.3013 16.6845 6.0412 0.0000 -10727.5191 1497.2116 0.0000 0.0000 1747.7713 -7456.5092 299.9722 -9204.2805 -7403.3241 300.6951 460.5075 473.8044 29672.5477 276.9212 322.9155
ENERGY: 900000 4.0611 10.0778 8.5528 0.0000 -10469.6850 1338.8010 0.0000 0.0000 1733.3330 -7374.8593 297.4941 -9108.1923 -7396.8798 300.0113 -589.6575 -515.3158 30616.8935 41.2130 90.0534
ENERGY: 1200000 4.2732 8.8058 7.7091 0.0000 -10661.6670 1449.6972 0.0000 0.0000 1772.9946 -7418.1872 304.3013 -9191.1818 -7400.1864 302.3133 50.2801 44.9531 29886.5362 11.0675 65.0574
ENERGY: 1500000 5.2954 11.3851 5.4655 0.0000 -10580.5952 1356.9591 0.0000 0.0000 1746.1664 -7455.3236 299.6968 -9201.4900 -7403.8958 302.2051 -932.4043 -878.0787 30135.6329 -11.0962 37.6090
TCL: Running FEP window  12: Lambda1 0.5499999999999999 Lambda2 0.6    [dLambda 0.050000000000000044]
TCL: Setting parameter firsttimestep to 0
TCL: Setting parameter alchLambda to 0.5499999999999999
Info: NONBONDED TABLE R-SQUARED SPACING: 0.0625
Info: NONBONDED TABLE SIZE: 705 POINTS
TCL: Setting parameter alchLambda2 to 0.6
Info: NONBONDED TABLE R-SQUARED SPACING: 0.0625
Info: NONBONDED TABLE SIZE: 705 POINTS
TCL: Running for 1500000 steps
ETITLE: TS BOND ANGLE DIHED IMPRP ELECT VDW BOUNDARY MISC KINETIC TOTAL TEMP POTENTIAL TOTALAVG TEMPAVG PRESSURE GPRESSURE VOLUME PRESSAVG GPRESSAVG
ENERGY: 0 5.2954 11.3851 5.4655 0.0000 -10580.3267 1357.0813 0.0000 0.0000 1745.2966 -7455.8028 299.5475 -9201.0994 -7455.8028 299.5475 -946.8044 -862.5729 30135.6329 -946.8044 -862.5729
ENERGY: 300000 3.9032 18.0741 7.3245 0.0000 -10562.3410 1471.2325 0.0000 0.0000 1806.6444 -7255.1622 310.0767 -9061.8066 -7341.0639 302.8839 946.5654 957.3508 29912.4997 -152.7933 -108.5550
ENERGY: 600000 4.5975 10.0900 5.6093 0.0000 -10449.5138 1390.6650 0.0000 0.0000 1692.3760 -7346.1759 290.4646 -9038.5519 -7361.8630 299.2865 -168.7937 -72.5579 30425.0408 -117.5469 -60.2774
ENERGY: 900000 1.7130 14.3762 6.4836 0.0000 -10489.2666 1379.4942 0.0000 0.0000 1739.5956 -7347.6041 298.5690 -9087.1997 -7369.0018 299.3234 -273.0669 -262.7373 30845.3656 -213.7295 -164.4221
ENERGY: 1200000 3.4010 12.8752 9.5178 0.0000 -10579.6675 1404.2153 0.0000 0.0000 1747.9535 -7401.7047 300.0035 -9149.6582 -7377.7454 299.0167 -396.8068 -283.7997 30279.4308 -215.4182 -158.4895
ENERGY: 1500000 1.6451 7.4593 8.8491 0.0000 -10591.5706 1411.8084 0.0000 0.0000 1787.4335 -7374.3751 306.7795 -9161.8086 -7376.6270 299.8183 152.0789 220.0982 29585.8168 -185.9180 -132.1362
TCL: Running FEP window  13: Lambda1 0.6    Lambda2 0.65   [dLambda 0.050000000000000044]
TCL: Setting parameter firsttimestep to 0
TCL: Setting parameter alchLambda to 0.6
Info: NONBONDED TABLE R-SQUARED SPACING: 0.0625
Info: NONBONDED TABLE SIZE: 705 POINTS
TCL: Setting parameter alchLambda2 to 0.65
Info: NONBONDED TABLE R-SQUARED SPACING: 0.0625
Info: NONBONDED TABLE SIZE: 705 POINTS
TCL: Running for 1500000 steps
ETITLE: TS BOND ANGLE DIHED IMPRP ELECT VDW BOUNDARY MISC KINETIC TOTAL TEMP POTENTIAL TOTALAVG TEMPAVG PRESSURE GPRESSURE VOLUME PRESSAVG GPRESSAVG
ENERGY: 0 1.6451 7.4593 8.8491 0.0000 -10591.3858 1411.3590 0.0000 0.0000 1786.5378 -7375.5355 306.6257 -9162.0732 -7375.5355 306.6257 145.1078 226.2274 29585.8168 145.1078 226.2274
ENERGY: 300000 5.9485 9.3816 6.3780 0.0000 -10558.5253 1352.2164 0.0000 0.0000 1746.1859 -7438.4149 299.7001 -9184.6008 -7410.8360 301.3039 -820.5172 -694.3004 30271.9019 1.8659 75.1587
ENERGY: 600000 2.7803 7.0348 5.3749 0.0000 -10407.7143 1314.4107 0.0000 0.0000 1771.7558 -7306.3577 304.0887 -9078.1135 -7394.0599 298.9815 -775.8531 -697.6116 30299.7957 -211.4972 -140.4347
ENERGY: 900000 1.9940 9.9444 6.4378 0.0000 -10502.0462 1387.7280 0.0000 0.0000 1693.8412 -7402.1008 290.7161 -9095.9421 -7399.0698 297.6763 -245.5717 -200.7257 30213.0637 -222.0648 -154.2707
ENERGY: 1200000 3.5431 8.9104 8.8419 0.0000 -10540.5719 1413.3730 0.0000 0.0000 1701.7690 -7404.1343 292.0768 -9105.9033 -7397.3100 297.6613 -217.0812 -142.0633 30122.8180 -333.9265 -267.5650
ENERGY: 1500000 7.4186 14.2162 6.1554 0.0000 -10608.5032 1457.7227 0.0000 0.0000 1709.6681 -7413.3222 293.4325 -9122.9903 -7395.6064 297.5006 163.9998 238.8178 30000.4479 -229.2107 -154.2025
TCL: Running FEP window  14: Lambda1 0.65   Lambda2 0.7000000000000001 [dLambda 0.050000000000000044]
TCL: Setting parameter firsttimestep to 0
TCL: Setting parameter alchLambda to 0.65
Info: NONBONDED TABLE R-SQUARED SPACING: 0.0625
Info: NONBONDED TABLE SIZE: 705 POINTS
TCL: Setting parameter alchLambda2 to 0.7000000000000001
Info: NONBONDED TABLE R-SQUARED SPACING: 0.0625
Info: NONBONDED TABLE SIZE: 705 POINTS
TCL: Running for 1500000 steps
ETITLE: TS BOND ANGLE DIHED IMPRP ELECT VDW BOUNDARY MISC KINETIC TOTAL TEMP POTENTIAL TOTALAVG TEMPAVG PRESSURE GPRESSURE VOLUME PRESSAVG GPRESSAVG
ENERGY: 0 7.4186 14.2162 6.1554 0.0000 -10609.0157 1458.3474 0.0000 0.0000 1708.7980 -7414.0801 293.2832 -9122.8781 -7414.0801 293.2832 171.2517 254.6808 30000.4479 171.2517 254.6808
ENERGY: 300000 3.6691 16.2237 4.1925 0.0000 -10638.4296 1449.9011 0.0000 0.0000 1723.2854 -7441.1578 295.7697 -9164.4432 -7385.3732 296.8197 569.6390 615.6988 29165.7195 17.1542 75.9853
ENERGY: 600000 0.9956 12.0878 5.2164 0.0000 -10656.5035 1482.9466 0.0000 0.0000 1794.4027 -7360.8545 307.9756 -9155.2572 -7379.2411 299.1627 791.4670 837.9072 29596.5089 74.0321 126.8352
ENERGY: 900000 1.7335 12.9842 6.5606 0.0000 -10547.0420 1404.8260 0.0000 0.0000 1771.8660 -7349.0718 304.1076 -9120.9378 -7378.4623 299.2510 -286.0075 -177.2308 30243.6436 12.2041 70.7174
ENERGY: 1200000 2.1247 10.5417 4.4822 0.0000 -10557.4649 1377.1484 0.0000 0.0000 1755.2341 -7407.9338 301.2531 -9163.1679 -7389.1893 299.0837 -483.1052 -428.9611 29944.4032 -128.9469 -65.7997
ENERGY: 1500000 3.6873 13.9229 9.9078 0.0000 -10740.3655 1543.4046 0.0000 0.0000 1730.7940 -7438.6489 297.0584 -9169.4429 -7393.3950 299.4186 1174.4635 1272.6948 29717.6946 -14.0877 49.5249
TCL: Running FEP window  15: Lambda1 0.7000000000000001 Lambda2 0.7500000000000001 [dLambda 0.050000000000000044]
TCL: Setting parameter firsttimestep to 0
TCL: Setting parameter alchLambda to 0.7000000000000001
Info: NONBONDED TABLE R-SQUARED SPACING: 0.0625
Info: NONBONDED TABLE SIZE: 705 POINTS
TCL: Setting parameter alchLambda2 to 0.7500000000000001
Info: NONBONDED TABLE R-SQUARED SPACING: 0.0625
Info: NONBONDED TABLE SIZE: 705 POINTS
TCL: Running for 1500000 steps
ETITLE: TS BOND ANGLE DIHED IMPRP ELECT VDW BOUNDARY MISC KINETIC TOTAL TEMP POTENTIAL TOTALAVG TEMPAVG PRESSURE GPRESSURE VOLUME PRESSAVG GPRESSAVG
ENERGY: 0 3.6873 13.9229 9.9078 0.0000 -10740.9791 1544.4567 0.0000 0.0000 1729.9489 -7439.0555 296.9133 -9169.0045 -7439.0555 296.9133 1203.2379 1296.7011 29717.6946 1203.2379 1296.7011
ENERGY: 300000 2.1990 9.3655 6.4310 0.0000 -10560.9383 1419.4805 0.0000 0.0000 1742.6598 -7380.8024 299.0949 -9123.4623 -7382.6942 298.2836 -0.7685 74.9477 30052.5025 389.6588 475.7913
ENERGY: 600000 1.4799 12.0348 6.8947 0.0000 -10783.6531 1517.6505 0.0000 0.0000 1761.6781 -7483.9151 302.3591 -9245.5932 -7400.9305 300.0890 484.4219 517.6367 29799.2416 395.0456 470.0059
ENERGY: 900000 2.0746 9.2664 7.2747 0.0000 -10587.3907 1375.6285 0.0000 0.0000 1754.9403 -7438.2062 301.2026 -9193.1465 -7410.6794 299.7474 -431.7771 -361.2978 30485.4386 240.3084 304.4173
ENERGY: 1200000 3.9735 7.0730 4.8147 0.0000 -10617.0106 1413.5842 0.0000 0.0000 1741.9728 -7445.5924 298.9770 -9187.5653 -7407.9002 299.8764 -103.7099 -46.0286 29791.4115 114.7244 179.4398
ENERGY: 1500000 2.7837 8.2945 7.4181 0.0000 -10523.1797 1387.7966 0.0000 0.0000 1673.3897 -7443.4971 287.2060 -9116.8868 -7405.8784 299.0026 83.0376 65.6596 29736.4543 130.6559 193.0788
TCL: Running FEP window  16: Lambda1 0.7500000000000001 Lambda2 0.8000000000000002 [dLambda 0.050000000000000044]
TCL: Setting parameter firsttimestep to 0
TCL: Setting parameter alchLambda to 0.7500000000000001
Info: NONBONDED TABLE R-SQUARED SPACING: 0.0625
Info: NONBONDED TABLE SIZE: 705 POINTS
TCL: Setting parameter alchLambda2 to 0.8000000000000002
Info: NONBONDED TABLE R-SQUARED SPACING: 0.0625
Info: NONBONDED TABLE SIZE: 705 POINTS
TCL: Running for 1500000 steps
ETITLE: TS BOND ANGLE DIHED IMPRP ELECT VDW BOUNDARY MISC KINETIC TOTAL TEMP POTENTIAL TOTALAVG TEMPAVG PRESSURE GPRESSURE VOLUME PRESSAVG GPRESSAVG
ENERGY: 0 2.7837 8.2945 7.4181 0.0000 -10524.2451 1388.3856 0.0000 0.0000 1672.5402 -7444.8231 287.0602 -9117.3633 -7444.8231 287.0602 10.5199 86.0244 29736.4543 10.5199 86.0244
ENERGY: 300000 2.9579 11.7382 7.1450 0.0000 -10597.7255 1447.0402 0.0000 0.0000 1715.6159 -7413.2282 294.4533 -9128.8441 -7384.0994 293.3661 203.6781 220.2764 30323.8725 111.0596 147.6937
ENERGY: 600000 2.2215 10.8463 5.8580 0.0000 -10442.8376 1339.4790 0.0000 0.0000 1751.9574 -7332.4754 300.6907 -9084.4329 -7359.4837 297.3544 -570.8757 -554.4294 30499.5807 23.6929 71.4140
ENERGY: 900000 1.6201 8.3428 5.0940 0.0000 -10418.3826 1379.5226 0.0000 0.0000 1777.7909 -7246.0121 305.1245 -9023.8030 -7345.0730 300.6201 -102.4490 -10.6969 30567.1742 -70.6238 -20.8026
ENERGY: 1200000 1.5464 12.5512 5.8671 0.0000 -10612.5027 1395.9026 0.0000 0.0000 1745.0396 -7451.5957 299.5034 -9196.6353 -7356.3478 300.7394 -456.4501 -440.7590 30426.1356 -126.2479 -78.2921
ENERGY: 1500000 3.5961 17.0734 8.0513 0.0000 -10651.8824 1532.8300 0.0000 0.0000 1784.1360 -7306.1957 306.2135 -9090.3317 -7357.2545 300.6587 1071.4741 1160.2958 30262.1643 27.7521 82.1967
TCL: Running FEP window  17: Lambda1 0.8000000000000002 Lambda2 0.8500000000000002 [dLambda 0.050000000000000044]
TCL: Setting parameter firsttimestep to 0
TCL: Setting parameter alchLambda to 0.8000000000000002
Info: NONBONDED TABLE R-SQUARED SPACING: 0.0625
Info: NONBONDED TABLE SIZE: 705 POINTS
TCL: Setting parameter alchLambda2 to 0.8500000000000002
Info: NONBONDED TABLE R-SQUARED SPACING: 0.0625
Info: NONBONDED TABLE SIZE: 705 POINTS
TCL: Running for 1500000 steps
ETITLE: TS BOND ANGLE DIHED IMPRP ELECT VDW BOUNDARY MISC KINETIC TOTAL TEMP POTENTIAL TOTALAVG TEMPAVG PRESSURE GPRESSURE VOLUME PRESSAVG GPRESSAVG
ENERGY: 0 3.5961 17.0734 8.0513 0.0000 -10652.6525 1533.0930 0.0000 0.0000 1783.2807 -7307.5581 306.0667 -9090.8388 -7307.5581 306.0667 1087.7061 1171.6692 30262.1643 1087.7061 1171.6692
ENERGY: 300000 3.5537 7.8633 6.5460 0.0000 -10608.1923 1414.5620 0.0000 0.0000 1772.1439 -7403.5234 304.1553 -9175.6673 -7364.6802 305.6991 -35.9414 14.8508 30232.8469 207.8440 261.1627
ENERGY: 600000 3.7138 5.7424 6.6444 0.0000 -10619.6766 1456.5929 0.0000 0.0000 1761.1034 -7385.8797 302.2604 -9146.9831 -7369.4740 303.9408 457.4749 477.4673 29908.2953 181.3152 233.7527
ENERGY: 900000 2.7117 11.7617 7.7540 0.0000 -10608.5100 1442.3749 0.0000 0.0000 1737.3035 -7406.6041 298.1756 -9143.9076 -7386.2439 302.3330 30.9518 56.7720 30558.7970 132.9431 181.2803
ENERGY: 1200000 4.1436 11.1323 8.2557 0.0000 -10490.9199 1386.6497 0.0000 0.0000 1737.6519 -7343.0866 298.2354 -9080.7386 -7378.7857 301.9697 -140.2381 -121.9880 30172.3572 138.2461 190.1016
ENERGY: 1500000 1.9940 9.6326 5.8802 0.0000 -10555.0352 1390.3133 0.0000 0.0000 1697.7828 -7449.4323 291.3926 -9147.2151 -7383.1339 300.8527 -285.7657 -256.5294 29946.2731 74.3839 128.6032
TCL: Running FEP window  18: Lambda1 0.8500000000000002 Lambda2 0.9000000000000002 [dLambda 0.050000000000000044]
TCL: Setting parameter firsttimestep to 0
TCL: Setting parameter alchLambda to 0.8500000000000002
Info: NONBONDED TABLE R-SQUARED SPACING: 0.0625
Info: NONBONDED TABLE SIZE: 705 POINTS
TCL: Setting parameter alchLambda2 to 0.9000000000000002
Info: NONBONDED TABLE R-SQUARED SPACING: 0.0625
Info: NONBONDED TABLE SIZE: 705 POINTS
TCL: Running for 1500000 steps
ETITLE: TS BOND ANGLE DIHED IMPRP ELECT VDW BOUNDARY MISC KINETIC TOTAL TEMP POTENTIAL TOTALAVG TEMPAVG PRESSURE GPRESSURE VOLUME PRESSAVG GPRESSAVG
ENERGY: 0 1.9940 9.6326 5.8802 0.0000 -10556.2882 1390.3259 0.0000 0.0000 1696.9098 -7451.5457 291.2428 -9148.4555 -7451.5457 291.2428 -324.0079 -249.8520 29946.2731 -324.0079 -249.8520
ENERGY: 300000 1.4421 13.2301 5.2478 0.0000 -10602.3457 1427.2274 0.0000 0.0000 1728.4694 -7426.7290 296.6594 -9155.1984 -7413.7214 296.1370 224.1837 289.0477 29541.4536 -10.0818 58.6648
ENERGY: 600000 3.3873 9.2177 7.1760 0.0000 -10573.7803 1451.8178 0.0000 0.0000 1732.8697 -7369.3118 297.4146 -9102.1815 -7401.3774 298.3510 342.6194 366.3921 30016.8682 9.6948 63.7722
ENERGY: 900000 2.3651 11.7013 5.0230 0.0000 -10464.5638 1357.3946 0.0000 0.0000 1825.4813 -7262.5985 313.3097 -9088.0798 -7378.4802 301.1102 -458.2245 -384.7130 30538.9207 -37.3795 4.9720
ENERGY: 1200000 5.7378 12.0061 7.4865 0.0000 -10459.2504 1415.2093 0.0000 0.0000 1760.8182 -7257.9925 302.2115 -9018.8107 -7359.3513 301.0494 472.1271 548.6851 29975.7919 -70.0439 -15.0224
ENERGY: 1500000 4.5858 11.3580 5.5065 0.0000 -10595.0457 1401.6048 0.0000 0.0000 1735.8597 -7436.1309 297.9278 -9171.9907 -7358.9217 301.5295 -369.0337 -309.3898 30144.8563 -37.8168 15.0640
TCL: Running FEP window  19: Lambda1 0.9000000000000002 Lambda2 0.9500000000000003 [dLambda 0.050000000000000044]
TCL: Setting parameter firsttimestep to 0
TCL: Setting parameter alchLambda to 0.9000000000000002
Info: NONBONDED TABLE R-SQUARED SPACING: 0.0625
Info: NONBONDED TABLE SIZE: 705 POINTS
TCL: Setting parameter alchLambda2 to 0.9500000000000003
Info: NONBONDED TABLE R-SQUARED SPACING: 0.0625
Info: NONBONDED TABLE SIZE: 705 POINTS
TCL: Running for 1500000 steps
ETITLE: TS BOND ANGLE DIHED IMPRP ELECT VDW BOUNDARY MISC KINETIC TOTAL TEMP POTENTIAL TOTALAVG TEMPAVG PRESSURE GPRESSURE VOLUME PRESSAVG GPRESSAVG
ENERGY: 0 4.5858 11.3580 5.5065 0.0000 -10596.0374 1401.5494 0.0000 0.0000 1735.0065 -7438.0312 297.7814 -9173.0377 -7438.0312 297.7814 -377.8577 -298.7825 30144.8563 -377.8577 -298.7825
ENERGY: 300000 4.1113 9.8931 7.6588 0.0000 -10664.9398 1436.9715 0.0000 0.0000 1768.2750 -7438.0301 303.4913 -9206.3051 -7416.3230 301.1010 -2.6537 83.7633 29932.5789 -168.2442 -128.1315
ENERGY: 600000 5.6565 11.9823 5.5930 0.0000 -10534.7607 1390.9863 0.0000 0.0000 1786.4396 -7334.1030 306.6089 -9120.5426 -7390.7265 302.9330 -154.7062 -56.9320 30055.2692 -22.6373 34.9991
ENERGY: 900000 3.2161 7.2290 5.8479 0.0000 -10568.7051 1409.7260 0.0000 0.0000 1736.0039 -7406.6822 297.9526 -9142.6862 -7380.4212 302.2897 -179.0401 -15.8106 30002.4979 -75.1675 -4.9223
ENERGY: 1200000 2.5449 9.5784 9.6967 0.0000 -10616.7541 1419.0313 0.0000 0.0000 1735.3708 -7440.5320 297.8439 -9175.9028 -7381.3634 301.5499 278.1137 351.0552 29429.7346 -60.7633 9.7469
ENERGY: 1500000 1.2161 10.3186 7.7038 0.0000 -10627.7820 1382.4458 0.0000 0.0000 1697.4869 -7528.6108 291.3418 -9226.0978 -7394.1423 301.1570 -425.9109 -407.7960 29999.2336 -132.2206 -66.0231
TCL: Running FEP window  20: Lambda1 0.9500000000000003 Lambda2 1.0    [dLambda 0.04999999999999971]
TCL: Setting parameter firsttimestep to 0
TCL: Setting parameter alchLambda to 0.9500000000000003
Info: NONBONDED TABLE R-SQUARED SPACING: 0.0625
Info: NONBONDED TABLE SIZE: 705 POINTS
TCL: Setting parameter alchLambda2 to 1.0
Info: NONBONDED TABLE R-SQUARED SPACING: 0.0625
Info: NONBONDED TABLE SIZE: 705 POINTS
TCL: Running for 1500000 steps
ETITLE: TS BOND ANGLE DIHED IMPRP ELECT VDW BOUNDARY MISC KINETIC TOTAL TEMP POTENTIAL TOTALAVG TEMPAVG PRESSURE GPRESSURE VOLUME PRESSAVG GPRESSAVG
ENERGY: 0 1.2161 10.3186 7.7038 0.0000 -10629.0721 1384.6909 0.0000 0.0000 1696.6294 -7528.5133 291.1947 -9225.1427 -7528.5133 291.1947 -457.3749 -366.1521 29999.2336 -457.3749 -366.1521
ENERGY: 300000 2.8487 6.2839 7.4513 0.0000 -10647.1019 1451.7776 0.0000 0.0000 1758.1030 -7420.6374 301.7455 -9178.7404 -7425.7291 296.8396 134.7988 153.0846 30204.8515 -190.2302 -137.5705
ENERGY: 600000 2.8628 10.7883 8.5624 0.0000 -10529.8751 1349.1535 0.0000 0.0000 1764.2956 -7394.2126 302.8083 -9158.5081 -7405.1533 299.5994 -417.0676 -346.3352 29872.5152 -102.2289 -45.6423
ENERGY: 900000 3.2512 9.5188 7.3138 0.0000 -10512.8627 1336.7548 0.0000 0.0000 1743.2839 -7412.7401 299.2020 -9156.0240 -7416.4841 299.1292 -596.7277 -597.7191 29968.7497 -194.4947 -140.3668
ENERGY: 1200000 3.1538 9.9603 6.1085 0.0000 -10443.3953 1321.9152 0.0000 0.0000 1776.3517 -7325.9058 304.8775 -9102.2575 -7413.7434 298.8638 -588.4659 -543.2076 30412.2973 -152.1618 -96.5985
ENERGY: 1500000 3.7215 7.7566 7.5067 0.0000 -10697.9101 1499.4912 0.0000 0.0000 1760.9122 -7418.5219 302.2276 -9179.4341 -7414.1348 299.1540 478.1513 611.8354 29980.3194 -100.6144 -42.0415
TCL: Exiting due to exit command.
