Info: SIMULATION PARAMETERS:
Info: TIMESTEP               2
Info: NUMBER OF STEPS        0
Info: STEPS PER CYCLE        10
Info: PERIODIC CELL BASIS 1  34.0962 0 0
Info: PERIODIC CELL BASIS 2  0 31.0692 0
Info: PERIODIC CELL BASIS 3  0 0 29.031
Info: PERIODIC CELL CENTER   0 0 0
Info: WRAPPING WATERS AROUND PERIODIC BOUNDARIES ON OUTPUT.
Info: WRAPPING ALL CLUSTERS AROUND PERIODIC BOUNDARIES ON OUTPUT.
Info: FIRST LDB TIMESTEP     50
Info: LAST LDB TIMESTEP     -1
Info: HOM BACKGROUND SCALING 1
Info: PME BACKGROUND SCALING 1
Info: MIN ATOMS PER PATCH    40
Info: EMPTY PATCH LOAD       40 ATOMS
Info: VELOCITY FILE          mobley_2518989_equil.vel
Info: CENTER OF MASS MOVING INITIALLY? NO
Info: DIELECTRIC             1
Info: EXCLUDE                SCALED ONE-FOUR
Info: 1-4 ELECTROSTATICS SCALED BY 0.833333
Info: MODIFIED 1-4 VDW PARAMETERS WILL BE USED
Info: DCD FILENAME           mobley_2518989_prod.dcd
Info: DCD FREQUENCY          100000
Info: DCD FIRST STEP         100000
Info: DCD FILE WILL CONTAIN UNIT CELL DATA
Info: XST FILENAME           mobley_2518989_prod.xst
Info: XST FREQUENCY          100000
Info: NO VELOCITY DCD OUTPUT
Info: NO FORCE DCD OUTPUT
Info: OUTPUT FILENAME        mobley_2518989_prod
Info: BINARY OUTPUT FILES WILL BE USED
Info: RESTART FILENAME       mobley_2518989_prod.restart
Info: RESTART FREQUENCY      100000
Info: BINARY RESTART FILES WILL BE USED
Info: CUTOFF                 9
Info: PAIRLIST DISTANCE      11
Info: PAIRLIST SHRINK RATE   0.01
Info: PAIRLIST GROW RATE     0.01
Info: PAIRLIST TRIGGER       0.3
Info: PAIRLISTS PER CYCLE    2
Info: PAIRLISTS ENABLED
Info: MARGIN                 2
Info: HYDROGEN GROUP CUTOFF  2.5
Info: PATCH DIMENSION        15.5
Info: ENERGY OUTPUT STEPS    100000
Info: ENERGY EVALUATION STEPS    100000
Info: OUTPUT ENERGY PRECISION 4
Info: CROSSTERM ENERGY INCLUDED IN DIHEDRAL
Info: TIMING OUTPUT STEPS    1000000
Info: PRESSURE OUTPUT STEPS  100000
Info: ALCHEMICAL FEP ON
Info: FEP CURRENT LAMBDA VALUE     1
Info: FEP COMPARISON LAMBDA VALUE  0.95
Info: FEP INTRA-ALCHEMICAL NON-BONDED INTERACTIONS WILL BE RETAINED
Info: FEP INTRA-ALCHEMICAL BONDED INTERACTIONS WILL BE RETAINED
Info: FEP VDW SHIFTING COEFFICIENT 5
Info: FEP ELEC. ACTIVE FOR ANNIHILATED PARTICLES BETWEEN LAMBDA = 0 AND LAMBDA = 0.5
Info: FEP ELEC. ACTIVE FOR EXNIHILATED PARTICLES BETWEEN LAMBDA = 0.5 AND LAMBDA = 1
Info: FEP VDW ACTIVE FOR ANNIHILATED PARTICLES BETWEEN LAMBDA = 0 AND LAMBDA = 1
Info: FEP VDW ACTIVE FOR EXNIHILATED PARTICLES BETWEEN LAMBDA = 0 AND LAMBDA = 1
Info: FEP BOND ACTIVE FOR ANNIHILATED PARTICLES BETWEEN LAMBDA = 1 AND LAMBDA = 1
Info: FEP BOND ACTIVE FOR EXNIHILATED PARTICLES BETWEEN LAMBDA = 0 AND LAMBDA = 0
Info: LANGEVIN DYNAMICS ACTIVE
Info: LANGEVIN TEMPERATURE   300
Info: LANGEVIN USING BBK INTEGRATOR
Info: LANGEVIN DAMPING COEFFICIENT IS 1 INVERSE PS
Info: LANGEVIN DYNAMICS APPLIED TO HYDROGENS
Info: LANGEVIN PISTON PRESSURE CONTROL ACTIVE
Info:        TARGET PRESSURE IS 1.01325 BAR
Info:     OSCILLATION PERIOD IS 50 FS
Info:             DECAY TIME IS 25 FS
Info:     PISTON TEMPERATURE IS 300 K
Info:       PRESSURE CONTROL IS GROUP-BASED
Info:    INITIAL STRAIN RATE IS 0.000700684 0.000700684 0.000700684
Info:       CELL FLUCTUATION IS ISOTROPIC
Info: PARTICLE MESH EWALD (PME) ACTIVE
Info: PME TOLERANCE               1e-06
Info: PME EWALD COEFFICIENT       0.348832
Info: PME INTERPOLATION ORDER     4
Info: PME GRID DIMENSIONS         36 32 32
Info: PME MAXIMUM GRID SPACING    1
Info: PME CALCULATION WILL BE PERFORMED ON GPU
Info: FULL ELECTROSTATIC EVALUATION FREQUENCY      2
Info: USING VERLET I (r-RESPA) MTS SCHEME.
Info: C1 SPLITTING OF LONG RANGE ELECTROSTATICS
Info: PLACING ATOMS IN PATCHES BY HYDROGEN GROUPS
Info: RIGID BONDS TO HYDROGEN : ALL
Info:         ERROR TOLERANCE : 1e-08
Info:          MAX ITERATIONS : 100
Info: RIGID WATER USING SETTLE ALGORITHM
Info: RANDOM NUMBER SEED     1744097140
Info: USE HYDROGEN BONDS?    NO
Info: Using AMBER format force field!
Info: AMBER PARM FILE        mobley_2518989.prmtop
Info: COORDINATE PDB         mobley_2518989.pdb
Info: Exclusions will be read from PARM file!
Info: SCNB (VDW SCALING)     2
Info: USING ARITHMETIC MEAN TO COMBINE L-J SIGMA PARAMETERS
Info: BINARY COORDINATES     mobley_2518989_equil.coor
Info: SUMMARY OF PARAMETERS:
Info: 18 BONDS
Info: 28 ANGLES
Info:   28 HARMONIC
Info:   0 COSINE-BASED
Info: 19 DIHEDRAL
Info: 0 IMPROPER
Info: 0 CROSSTERM
Info: 0 VDW
Info: 105 VDW_PAIRS
Info: 0 NBTHOLE_PAIRS
Info: To read alchdata from file: mobley_2518989.pdb
Info: To read alchflag data from column: 5
Info: STRUCTURE SUMMARY:
Info: 2968 ATOMS
Info: 2969 BONDS
Info: 72 ANGLES
Info: 116 DIHEDRALS
Info: 0 IMPROPERS
Info: 0 CROSSTERMS
Info: 3124 EXCLUSIONS
Info: 2945 RIGID BONDS
Info: ALCH: 0 ATOMS TO DISAPPEAR IN FINAL STATE
Info: ALCH: 40 ATOMS TO APPEAR IN FINAL STATE
Info: 5959 DEGREES OF FREEDOM
Info: 999 HYDROGEN GROUPS
Info: 4 ATOMS IN LARGEST HYDROGEN GROUP
Info: 999 MIGRATION GROUPS
Info: 4 ATOMS IN LARGEST MIGRATION GROUP
Info: TOTAL MASS = 17977.4 amu
Info: TOTAL CHARGE = 0.000200024 e
Info: MASS DENSITY = 0.970706 g/cm^3
Info: ATOM DENSITY = 0.0965083 atoms/A^3
Info: ADDED 0 IMPLICIT EXCLUSIONS
Info: NONBONDED TABLE R-SQUARED SPACING: 0.0625
Info: NONBONDED TABLE SIZE: 705 POINTS
Info: REDUCING NUMBER OF PATCHES TO IMPROVE LOAD BALANCE
Info: REMOVING COM VELOCITY -0.150628 -0.228273 0.0602376
Info: Use 3D box decompostion in PME FFT.
Info: Updated CUDA force table with 4096 elements.
Info: Updated CUDA LJ table with 14 x 14 elements.
Info: Found 39 unique exclusion lists needing 188 bytes
TCL: Running for 1500000 steps
ETITLE: TS BOND ANGLE DIHED IMPRP ELECT VDW BOUNDARY MISC KINETIC TOTAL TEMP POTENTIAL TOTALAVG TEMPAVG PRESSURE GPRESSURE VOLUME PRESSAVG GPRESSAVG
ENERGY: 0 9.6920 35.1221 30.2266 0.0000 -10859.9832 1442.0123 0.0000 0.0000 1791.6583 -7551.2719 302.6023 -9342.9301 -7551.2719 302.6023 214.1620 293.9180 30753.8369 214.1620 293.9180
ENERGY: 300000 7.4077 43.7235 32.7425 0.0000 -10820.9188 1352.9636 0.0000 0.0000 1829.7783 -7554.3033 309.0405 -9384.0816 -7527.2452 306.4809 -570.4016 -571.5295 30410.1343 246.3317 261.8860
ENERGY: 600000 10.8872 40.1798 28.2865 0.0000 -10874.0383 1435.2723 0.0000 0.0000 1781.1983 -7578.2142 300.8356 -9359.4125 -7544.5374 303.2166 81.8336 212.6984 30287.4632 135.3650 172.8849
ENERGY: 900000 9.1143 38.6836 29.2571 0.0000 -10581.0964 1246.0519 0.0000 0.0000 1740.2577 -7517.7317 293.9210 -9257.9894 -7541.4915 301.9860 -1285.8791 -1306.1697 31146.0034 -50.0971 -12.8756
ENERGY: 1200000 9.2512 38.7696 28.2476 0.0000 -10897.4035 1449.5516 0.0000 0.0000 1724.7841 -7646.7994 291.3076 -9371.5835 -7549.8305 301.1719 109.0460 140.8739 30668.8337 -8.2781 30.8054
ENERGY: 1500000 10.4193 38.8614 30.0684 0.0000 -10897.9120 1427.5285 0.0000 0.0000 1816.5388 -7574.4956 306.8045 -9391.0344 -7548.2394 302.3330 -98.8423 -21.8048 30392.1622 -4.7909 45.4784
TCL: Running FEP window   2: Lambda1 0.95   Lambda2 0.8999999999999999 [dLambda -0.050000000000000044]
TCL: Setting parameter firsttimestep to 0
TCL: Setting parameter alchLambda to 0.95
Info: NONBONDED TABLE R-SQUARED SPACING: 0.0625
Info: NONBONDED TABLE SIZE: 705 POINTS
TCL: Setting parameter alchLambda2 to 0.8999999999999999
Info: NONBONDED TABLE R-SQUARED SPACING: 0.0625
Info: NONBONDED TABLE SIZE: 705 POINTS
TCL: Running for 1500000 steps
ETITLE: TS BOND ANGLE DIHED IMPRP ELECT VDW BOUNDARY MISC KINETIC TOTAL TEMP POTENTIAL TOTALAVG TEMPAVG PRESSURE GPRESSURE VOLUME PRESSAVG GPRESSAVG
ENERGY: 0 10.4193 38.8614 30.0684 0.0000 -10893.1359 1427.6533 0.0000 0.0000 1815.6802 -7570.4534 306.6594 -9386.1335 -7570.4534 306.6594 -124.3450 -43.5172 30392.1622 -124.3450 -43.5172
ENERGY: 300000 12.3446 33.5739 31.8792 0.0000 -10979.2969 1522.1879 0.0000 0.0000 1779.6439 -7599.6674 300.5731 -9379.3113 -7528.9621 303.0314 586.6389 666.8158 30519.9778 187.0635 243.7187
ENERGY: 600000 9.7179 38.1497 30.1818 0.0000 -10766.5831 1420.4300 0.0000 0.0000 1756.4349 -7511.6689 296.6532 -9268.1037 -7515.2920 301.8986 -66.6251 -43.3280 30833.3817 61.8680 110.4749
ENERGY: 900000 7.3760 34.8157 24.9974 0.0000 -10823.5872 1462.4962 0.0000 0.0000 1829.7299 -7464.1719 309.0324 -9293.9019 -7526.7922 301.1506 931.5513 974.3666 30479.7692 101.8674 140.3244
ENERGY: 1200000 5.5869 38.2982 29.1958 0.0000 -10728.0663 1325.0507 0.0000 0.0000 1803.3104 -7526.6242 304.5703 -9329.9347 -7531.8879 301.4624 -750.6022 -743.4071 31166.8494 -89.1465 -54.3539
ENERGY: 1500000 10.5569 41.0236 28.6465 0.0000 -10817.1130 1407.2702 0.0000 0.0000 1811.7685 -7517.8473 305.9988 -9329.6158 -7534.1762 301.3058 -208.3836 -131.1965 30682.6881 -65.8469 -29.4717
TCL: Running FEP window   3: Lambda1 0.8999999999999999 Lambda2 0.8499999999999999 [dLambda -0.050000000000000044]
TCL: Setting parameter firsttimestep to 0
TCL: Setting parameter alchLambda to 0.8999999999999999
Info: NONBONDED TABLE R-SQUARED SPACING: 0.0625
Info: NONBONDED TABLE SIZE: 705 POINTS
TCL: Setting parameter alchLambda2 to 0.8499999999999999
Info: NONBONDED TABLE R-SQUARED SPACING: 0.0625
Info: NONBONDED TABLE SIZE: 705 POINTS
TCL: Running for 1500000 steps
ETITLE: TS BOND ANGLE DIHED IMPRP ELECT VDW BOUNDARY MISC KINETIC TOTAL TEMP POTENTIAL TOTALAVG TEMPAVG PRESSURE GPRESSURE VOLUME PRESSAVG GPRESSAVG
ENERGY: 0 10.5569 41.0236 28.6465 0.0000 -10813.2681 1406.7804 0.0000 0.0000 1810.8489 -7515.4119 305.8435 -9326.2608 -7515.4119 305.8435 -238.7483 -156.2052 30682.6881 -238.7483 -156.2052
ENERGY: 300000 6.9316 33.1268 29.9628 0.0000 -10852.2933 1384.2645 0.0000 0.0000 1733.0199 -7664.9876 292.6985 -9398.0076 -7536.6400 301.6956 -619.3260 -560.4753 30773.5831 -264.4100 -180.2684
ENERGY: 600000 9.0004 45.9354 30.0715 0.0000 -10737.8764 1346.7416 0.0000 0.0000 1757.8893 -7548.2381 296.8989 -9306.1274 -7554.3682 301.4822 -1011.7482 -964.6085 30947.7524 -346.2050 -268.3412
ENERGY: 900000 8.8259 39.9763 31.5243 0.0000 -10606.5007 1262.7893 0.0000 0.0000 1793.0109 -7470.3739 302.8307 -9263.3848 -7529.4291 301.2551 -1318.8456 -1297.9817 30949.1970 -455.1641 -389.6881
ENERGY: 1200000 6.6901 31.7754 29.1158 0.0000 -10874.6013 1388.1962 0.0000 0.0000 1780.3546 -7638.4693 300.6931 -9418.8239 -7535.6908 301.2378 -674.3181 -632.0454 30666.6359 -445.5090 -382.7360
ENERGY: 1500000 5.7804 35.9641 27.3040 0.0000 -10666.2927 1320.5276 0.0000 0.0000 1823.5470 -7453.1696 307.9881 -9276.7166 -7529.7637 302.5119 -622.1657 -559.9823 30827.3873 -450.1386 -386.3319
TCL: Running FEP window   4: Lambda1 0.8499999999999999 Lambda2 0.7999999999999998 [dLambda -0.050000000000000044]
TCL: Setting parameter firsttimestep to 0
TCL: Setting parameter alchLambda to 0.8499999999999999
Info: NONBONDED TABLE R-SQUARED SPACING: 0.0625
Info: NONBONDED TABLE SIZE: 705 POINTS
TCL: Setting parameter alchLambda2 to 0.7999999999999998
Info: NONBONDED TABLE R-SQUARED SPACING: 0.0625
Info: NONBONDED TABLE SIZE: 705 POINTS
TCL: Running for 1500000 steps
ETITLE: TS BOND ANGLE DIHED IMPRP ELECT VDW BOUNDARY MISC KINETIC TOTAL TEMP POTENTIAL TOTALAVG TEMPAVG PRESSURE GPRESSURE VOLUME PRESSAVG GPRESSAVG
ENERGY: 0 5.7804 35.9641 27.3040 0.0000 -10661.9204 1319.8205 0.0000 0.0000 1822.6640 -7450.3874 307.8390 -9273.0514 -7450.3874 307.8390 -672.3272 -583.8309 30827.3873 -672.3272 -583.8309
ENERGY: 300000 5.7957 36.4301 33.2987 0.0000 -10796.3185 1373.4824 0.0000 0.0000 1759.3168 -7587.9948 297.1400 -9347.3116 -7523.9461 300.0126 -372.8221 -338.4245 30536.7382 -502.9959 -438.7312
ENERGY: 600000 5.6409 38.7769 29.7182 0.0000 -10841.9739 1444.6169 0.0000 0.0000 1789.0803 -7534.1407 302.1669 -9323.2210 -7540.7193 299.0863 395.2715 455.3002 30744.2557 -236.5958 -169.3709
ENERGY: 900000 11.3527 34.6616 30.6395 0.0000 -10775.4626 1348.4161 0.0000 0.0000 1800.8343 -7549.5584 304.1521 -9350.3928 -7546.4489 300.0192 -506.7623 -441.2993 30247.2598 -238.7696 -176.7037
ENERGY: 1200000 7.0285 38.8153 31.1987 0.0000 -10805.0381 1467.4413 0.0000 0.0000 1753.9799 -7506.5744 296.2386 -9260.5543 -7538.7148 298.1903 701.2398 730.9385 30737.0740 -64.5669 -11.8472
ENERGY: 1500000 8.1490 36.1630 26.5207 0.0000 -10868.0023 1432.4978 0.0000 0.0000 1770.5677 -7594.1041 299.0402 -9364.6718 -7543.7535 298.1337 136.5751 241.8208 30418.9617 -76.3458 -18.9985
TCL: Running FEP window   5: Lambda1 0.7999999999999998 Lambda2 0.7499999999999998 [dLambda -0.050000000000000044]
TCL: Setting parameter firsttimestep to 0
TCL: Setting parameter alchLambda to 0.7999999999999998
Info: NONBONDED TABLE R-SQUARED SPACING: 0.0625
Info: NONBONDED TABLE SIZE: 705 POINTS
TCL: Setting parameter alchLambda2 to 0.7499999999999998
Info: NONBONDED TABLE R-SQUARED SPACING: 0.0625
Info: NONBONDED TABLE SIZE: 705 POINTS
TCL: Running for 1500000 steps
ETITLE: TS BOND ANGLE DIHED IMPRP ELECT VDW BOUNDARY MISC KINETIC TOTAL TEMP POTENTIAL TOTALAVG TEMPAVG PRESSURE GPRESSURE VOLUME PRESSAVG GPRESSAVG
ENERGY: 0 8.1490 36.1630 26.5207 0.0000 -10863.7240 1431.9850 0.0000 0.0000 1769.7206 -7591.1856 298.8971 -9360.9062 -7591.1856 298.8971 140.3708 224.7396 30418.9617 140.3708 224.7396
ENERGY: 300000 8.0183 37.9927 26.3342 0.0000 -10768.2815 1382.4894 0.0000 0.0000 1797.5050 -7515.9418 303.5897 -9313.4468 -7522.4080 303.4622 -108.9331 -95.0739 30383.3715 160.4451 224.0144
ENERGY: 600000 7.5187 33.3418 32.1922 0.0000 -10765.3070 1312.4047 0.0000 0.0000 1758.1104 -7621.7392 296.9362 -9379.8496 -7536.4548 301.3530 -1214.8350 -1140.7859 31238.6893 27.9214 81.4823
ENERGY: 900000 9.0140 38.9273 28.9663 0.0000 -10879.6373 1427.9315 0.0000 0.0000 1772.1783 -7602.6199 299.3122 -9374.7982 -7549.6034 300.4113 -161.8815 -88.7344 30512.2522 -83.5748 -23.8221
ENERGY: 1200000 9.2226 39.6548 28.0194 0.0000 -10747.7011 1392.9264 0.0000 0.0000 1758.9661 -7518.9118 297.0807 -9277.8779 -7531.3449 300.2048 -98.6308 -56.5313 31192.7291 -60.8647 -2.0282
ENERGY: 1500000 5.0477 33.3547 26.2314 0.0000 -10889.0065 1440.0526 0.0000 0.0000 1706.9038 -7677.4162 288.2877 -9384.3201 -7538.6204 299.9829 -160.7801 -86.0114 30592.8727 -73.0345 -16.4004
TCL: Running FEP window   6: Lambda1 0.7499999999999998 Lambda2 0.6999999999999997 [dLambda -0.050000000000000044]
TCL: Setting parameter firsttimestep to 0
TCL: Setting parameter alchLambda to 0.7499999999999998
Info: NONBONDED TABLE R-SQUARED SPACING: 0.0625
Info: NONBONDED TABLE SIZE: 705 POINTS
TCL: Setting parameter alchLambda2 to 0.6999999999999997
Info: NONBONDED TABLE R-SQUARED SPACING: 0.0625
Info: NONBONDED TABLE SIZE: 705 POINTS
TCL: Running for 1500000 steps
ETITLE: TS BOND ANGLE DIHED IMPRP ELECT VDW BOUNDARY MISC KINETIC TOTAL TEMP POTENTIAL TOTALAVG TEMPAVG PRESSURE GPRESSURE VOLUME PRESSAVG GPRESSAVG
ENERGY: 0 5.0477 33.3547 26.2314 0.0000 -10885.1066 1439.0745 0.0000 0.0000 1706.0326 -7675.3657 288.1405 -9381.3983 -7675.3657 288.1405 -203.9282 -112.3149 30592.8727 -203.9282 -112.3149
ENERGY: 300000 6.5614 39.4301 28.8309 0.0000 -10821.0388 1365.4603 0.0000 0.0000 1774.8608 -7605.8954 299.7653 -9380.7562 -7575.1766 293.6117 -404.2332 -350.5774 30029.3880 -195.8638 -156.5801
ENERGY: 600000 8.6550 35.5764 31.9530 0.0000 -10753.8477 1343.7102 0.0000 0.0000 1764.2369 -7569.7163 297.9709 -9333.9532 -7563.6931 296.1793 -478.4052 -418.2835 30529.2770 -130.8191 -87.4902
ENERGY: 900000 13.0353 35.4545 28.8389 0.0000 -10816.1018 1425.7937 0.0000 0.0000 1715.1296 -7597.8498 289.6770 -9312.9794 -7560.0844 297.0141 -509.5501 -424.7750 31129.4361 -110.3782 -60.8283
ENERGY: 1200000 8.8474 33.2647 27.3026 0.0000 -10840.5546 1458.5105 0.0000 0.0000 1795.6144 -7517.0150 303.2704 -9312.6294 -7556.3879 298.0754 172.3440 284.2005 30346.0041 -26.2396 27.8044
ENERGY: 1500000 9.2545 33.1683 28.9916 0.0000 -11018.7620 1542.1228 0.0000 0.0000 1818.7690 -7586.4558 307.1811 -9405.2249 -7559.9474 298.6517 668.6702 772.6189 30565.8200 -37.7102 13.9656
TCL: Running FEP window   7: Lambda1 0.6999999999999997 Lambda2 0.6499999999999997 [dLambda -0.050000000000000044]
TCL: Setting parameter firsttimestep to 0
TCL: Setting parameter alchLambda to 0.6999999999999997
Info: NONBONDED TABLE R-SQUARED SPACING: 0.0625
Info: NONBONDED TABLE SIZE: 705 POINTS
TCL: Setting parameter alchLambda2 to 0.6499999999999997
Info: NONBONDED TABLE R-SQUARED SPACING: 0.0625
Info: NONBONDED TABLE SIZE: 705 POINTS
TCL: Running for 1500000 steps
ETITLE: TS BOND ANGLE DIHED IMPRP ELECT VDW BOUNDARY MISC KINETIC TOTAL TEMP POTENTIAL TOTALAVG TEMPAVG PRESSURE GPRESSURE VOLUME PRESSAVG GPRESSAVG
ENERGY: 0 9.2545 33.1683 28.9916 0.0000 -11015.7040 1542.4024 0.0000 0.0000 1817.8970 -7583.9902 307.0339 -9401.8872 -7583.9902 307.0339 668.4669 762.1674 30565.8200 668.4669 762.1674
ENERGY: 300000 6.4409 35.6219 31.7886 0.0000 -10712.4042 1368.9398 0.0000 0.0000 1752.4231 -7517.1899 295.9756 -9269.6130 -7537.5696 301.0795 -355.4149 -275.1157 30653.8130 -211.2602 -112.9623
ENERGY: 600000 7.1909 39.9829 30.1454 0.0000 -10665.9282 1394.5839 0.0000 0.0000 1811.3505 -7382.6745 305.9282 -9194.0250 -7524.6756 302.5277 176.3570 200.4242 31121.1420 -166.6041 -100.9839
ENERGY: 900000 10.8445 36.6873 33.6862 0.0000 -10772.2821 1352.8772 0.0000 0.0000 1794.5046 -7543.6822 303.0830 -9338.1868 -7538.9724 302.0580 -855.6251 -827.9150 30965.2598 -302.3691 -240.7095
ENERGY: 1200000 7.7508 32.8739 28.3559 0.0000 -10782.0124 1459.6734 0.0000 0.0000 1773.3894 -7479.9691 299.5167 -9253.3585 -7529.3104 301.7076 886.7110 910.5361 30142.9507 -175.4625 -115.0123
ENERGY: 1500000 9.8780 31.0834 30.7157 0.0000 -10817.4952 1448.6129 0.0000 0.0000 1761.6583 -7535.5469 297.5354 -9297.2052 -7522.0134 301.3385 57.5641 125.0501 30785.8039 -136.4934 -69.6832
TCL: Running FEP window   8: Lambda1 0.6499999999999997 Lambda2 0.5999999999999996 [dLambda -0.050000000000000044]
TCL: Setting parameter firsttimestep to 0
TCL: Setting parameter alchLambda to 0.6499999999999997
Info: NONBONDED TABLE R-SQUARED SPACING: 0.0625
Info: NONBONDED TABLE SIZE: 705 POINTS
TCL: Setting parameter alchLambda2 to 0.5999999999999996
Info: NONBONDED TABLE R-SQUARED SPACING: 0.0625
Info: NONBONDED TABLE SIZE: 705 POINTS
TCL: Running for 1500000 steps
ETITLE: TS BOND ANGLE DIHED IMPRP ELECT VDW BOUNDARY MISC KINETIC TOTAL TEMP POTENTIAL TOTALAVG TEMPAVG PRESSURE GPRESSURE VOLUME PRESSAVG GPRESSAVG
ENERGY: 0 9.8780 31.0834 30.7156 0.0000 -10815.8390 1448.3823 0.0000 0.0000 1760.7847 -7534.9948 297.3879 -9295.7795 -7534.9948 297.3879 31.4373 109.8605 30785.8039 31.4373 109.8605
ENERGY: 300000 5.8359 29.6127 30.8864 0.0000 -10918.1549 1517.3129 0.0000 0.0000 1797.2383 -7537.2687 303.5447 -9334.5070 -7525.8388 299.4256 866.9150 900.2536 30532.8165 62.8764 132.5932
ENERGY: 600000 4.4718 32.3439 30.4788 0.0000 -10760.9119 1366.7575 0.0000 0.0000 1750.1392 -7576.7207 295.5899 -9326.8599 -7505.6176 300.2381 -851.6611 -737.3437 31228.4875 -248.2383 -166.3370
ENERGY: 900000 8.6805 31.8414 39.2380 0.0000 -10565.0075 1206.6383 0.0000 0.0000 1768.6090 -7510.0004 298.7094 -9278.6094 -7513.6911 300.2000 -1630.3236 -1566.3982 30478.8246 -326.0309 -254.1413
ENERGY: 1200000 10.3292 37.2104 31.0941 0.0000 -10895.1033 1425.7404 0.0000 0.0000 1771.4997 -7619.2295 299.1976 -9390.7292 -7528.1281 299.6898 -50.2946 9.1625 30760.1116 -279.9079 -214.2374
ENERGY: 1500000 5.0068 40.4286 26.2202 0.0000 -10934.0986 1489.5271 0.0000 0.0000 1833.2604 -7539.6555 309.6287 -9372.9159 -7522.3730 300.3754 532.1767 530.7788 30269.9563 -148.3589 -89.1247
TCL: Running FEP window   9: Lambda1 0.5999999999999996 Lambda2 0.5499999999999996 [dLambda -0.050000000000000044]
TCL: Setting parameter firsttimestep to 0
TCL: Setting parameter alchLambda to 0.5999999999999996
Info: NONBONDED TABLE R-SQUARED SPACING: 0.0625
Info: NONBONDED TABLE SIZE: 705 POINTS
TCL: Setting parameter alchLambda2 to 0.5499999999999996
Info: NONBONDED TABLE R-SQUARED SPACING: 0.0625
Info: NONBONDED TABLE SIZE: 705 POINTS
TCL: Running for 1500000 steps
ETITLE: TS BOND ANGLE DIHED IMPRP ELECT VDW BOUNDARY MISC KINETIC TOTAL TEMP POTENTIAL TOTALAVG TEMPAVG PRESSURE GPRESSURE VOLUME PRESSAVG GPRESSAVG
ENERGY: 0 5.0068 40.4286 26.2202 0.0000 -10930.4713 1488.1007 0.0000 0.0000 1832.3863 -7538.3286 309.4810 -9370.7149 -7538.3286 309.4810 433.1951 501.1827 30269.9563 433.1951 501.1827
ENERGY: 300000 7.6313 41.9484 30.1696 0.0000 -10630.7948 1298.6181 0.0000 0.0000 1825.8551 -7426.5724 308.3779 -9252.4275 -7526.9151 305.1947 -773.0402 -700.2656 30796.1196 -264.8282 -197.3847
ENERGY: 600000 8.8772 47.0212 29.7600 0.0000 -10772.4480 1398.1914 0.0000 0.0000 1734.0297 -7554.5686 292.8691 -9288.5983 -7538.9896 301.5980 -283.6209 -229.0178 30734.4089 -183.7700 -129.3026
ENERGY: 900000 8.4380 36.9050 29.9336 0.0000 -10764.1843 1420.0533 0.0000 0.0000 1799.4288 -7469.4257 303.9147 -9268.8545 -7528.4979 301.8241 174.9017 232.7319 30692.3272 -134.7080 -69.7199
ENERGY: 1200000 6.4994 29.5289 30.6909 0.0000 -10942.3143 1553.5871 0.0000 0.0000 1773.5625 -7548.4456 299.5460 -9322.0081 -7530.2961 300.9273 1053.6713 1056.0390 30734.4901 52.7084 112.7031
ENERGY: 1500000 8.8035 35.1640 30.5222 0.0000 -10870.8876 1469.1522 0.0000 0.0000 1802.2514 -7524.9944 304.3914 -9327.2457 -7525.1277 301.7767 629.1600 625.1741 30583.9395 88.0520 142.3146
TCL: Running FEP window  10: Lambda1 0.5499999999999996 Lambda2 0.4999999999999996 [dLambda -0.04999999999999999]
TCL: Setting parameter firsttimestep to 0
TCL: Setting parameter alchLambda to 0.5499999999999996
Info: NONBONDED TABLE R-SQUARED SPACING: 0.0625
Info: NONBONDED TABLE SIZE: 705 POINTS
TCL: Setting parameter alchLambda2 to 0.4999999999999996
Info: NONBONDED TABLE R-SQUARED SPACING: 0.0625
Info: NONBONDED TABLE SIZE: 705 POINTS
TCL: Running for 1500000 steps
ETITLE: TS BOND ANGLE DIHED IMPRP ELECT VDW BOUNDARY MISC KINETIC TOTAL TEMP POTENTIAL TOTALAVG TEMPAVG PRESSURE GPRESSURE VOLUME PRESSAVG GPRESSAVG
ENERGY: 0 8.8035 35.1640 30.5222 0.0000 -10868.8943 1469.4274 0.0000 0.0000 1801.3789 -7523.5983 304.2440 -9324.9772 -7523.5983 304.2440 545.9916 617.2238 30583.9395 545.9916 617.2238
ENERGY: 300000 8.4290 34.5353 30.4966 0.0000 -10716.0555 1365.9420 0.0000 0.0000 1821.4135 -7455.2390 307.6278 -9276.6526 -7520.6406 304.9791 -269.0494 -269.0231 30877.6261 33.9884 81.1641
ENERGY: 600000 2.6494 38.6853 27.6374 0.0000 -10710.1435 1339.2698 0.0000 0.0000 1799.8318 -7502.0699 303.9827 -9301.9017 -7519.7124 304.2328 -519.4528 -464.4106 30561.6000 -10.8643 44.5014
ENERGY: 900000 7.9668 35.1233 30.6340 0.0000 -10774.8686 1384.9278 0.0000 0.0000 1756.5625 -7559.6543 296.6748 -9316.2168 -7530.6200 301.9690 -297.2507 -242.9228 30643.2272 31.2400 87.0960
ENERGY: 1200000 5.7007 33.6308 31.4948 0.0000 -10865.1451 1444.2860 0.0000 0.0000 1765.9898 -7584.0430 298.2670 -9350.0327 -7539.5882 301.1628 163.5174 190.2807 30355.9466 -13.6413 41.7126
ENERGY: 1500000 9.7704 44.9288 28.9490 0.0000 -10651.1689 1363.5050 0.0000 0.0000 1807.4780 -7396.5377 305.2741 -9204.0157 -7524.9094 301.4641 -402.8592 -331.6764 30775.3141 -67.1559 -16.4654
TCL: Running FEP window  11: Lambda1 0.4999999999999996 Lambda2 0.4499999999999996 [dLambda -0.04999999999999999]
TCL: Setting parameter firsttimestep to 0
TCL: Setting parameter alchLambda to 0.4999999999999996
Info: NONBONDED TABLE R-SQUARED SPACING: 0.0625
Info: NONBONDED TABLE SIZE: 705 POINTS
TCL: Setting parameter alchLambda2 to 0.4499999999999996
Info: NONBONDED TABLE R-SQUARED SPACING: 0.0625
Info: NONBONDED TABLE SIZE: 705 POINTS
TCL: Running for 1500000 steps
ETITLE: TS BOND ANGLE DIHED IMPRP ELECT VDW BOUNDARY MISC KINETIC TOTAL TEMP POTENTIAL TOTALAVG TEMPAVG PRESSURE GPRESSURE VOLUME PRESSAVG GPRESSAVG
ENERGY: 0 9.7703 44.9288 28.9490 0.0000 -10651.5619 1363.4138 0.0000 0.0000 1806.5895 -7397.9105 305.1241 -9204.5000 -7397.9105 305.1241 -430.9198 -345.9759 30775.3141 -430.9198 -345.9759
ENERGY: 300000 8.1248 45.7702 30.6269 0.0000 -10735.0542 1323.5796 0.0000 0.0000 1810.9528 -7516.0000 305.8610 -9326.9528 -7490.2204 299.2142 -1179.3691 -1150.7150 30564.1719 -373.9171 -297.9230
ENERGY: 600000 9.0046 36.6508 28.6137 0.0000 -10718.7171 1389.2724 0.0000 0.0000 1729.9546 -7525.2210 292.1808 -9255.1756 -7509.2824 299.2119 -135.6939 -14.0086 30152.9541 -184.9477 -107.8451
ENERGY: 900000 11.0388 35.3978 26.8198 0.0000 -10794.8606 1433.2684 0.0000 0.0000 1762.9332 -7525.4025 297.7507 -9288.3357 -7521.8635 298.6102 523.9642 613.1028 30051.1367 -119.9103 -51.6861
ENERGY: 1200000 9.2679 41.5554 30.2528 0.0000 -10875.9053 1443.1430 0.0000 0.0000 1779.4393 -7572.2468 300.5385 -9351.6861 -7519.3667 300.0849 27.6194 43.2552 30196.7674 -29.0952 39.7275
ENERGY: 1500000 6.1119 36.0186 28.9499 0.0000 -10697.8875 1358.9460 0.0000 0.0000 1790.6273 -7477.2339 302.4281 -9267.8611 -7509.6585 300.8714 -639.0805 -546.6191 30639.0878 -116.1632 -51.0508
TCL: Running FEP window  12: Lambda1 0.4499999999999996 Lambda2 0.39999999999999963 [dLambda -0.04999999999999999]
TCL: Setting parameter firsttimestep to 0
TCL: Setting parameter alchLambda to 0.4499999999999996
Info: NONBONDED TABLE R-SQUARED SPACING: 0.0625
Info: NONBONDED TABLE SIZE: 705 POINTS
TCL: Setting parameter alchLambda2 to 0.39999999999999963
Info: NONBONDED TABLE R-SQUARED SPACING: 0.0625
Info: NONBONDED TABLE SIZE: 705 POINTS
TCL: Running for 1500000 steps
ETITLE: TS BOND ANGLE DIHED IMPRP ELECT VDW BOUNDARY MISC KINETIC TOTAL TEMP POTENTIAL TOTALAVG TEMPAVG PRESSURE GPRESSURE VOLUME PRESSAVG GPRESSAVG
ENERGY: 0 6.1119 36.0186 28.9499 0.0000 -10697.8853 1358.9465 0.0000 0.0000 1789.7611 -7478.0973 302.2819 -9267.8585 -7478.0973 302.2819 -653.3088 -562.8832 30639.0878 -653.3088 -562.8832
ENERGY: 300000 10.4390 38.3354 31.1935 0.0000 -10740.6524 1471.7363 0.0000 0.0000 1751.0024 -7437.9458 295.7357 -9188.9482 -7502.5498 302.2562 377.8142 501.3689 30940.5305 -81.1391 -15.6611
ENERGY: 600000 11.6896 40.8298 31.2164 0.0000 -10795.1249 1413.5078 0.0000 0.0000 1778.5540 -7519.3272 300.3890 -9297.8812 -7502.4362 302.8633 -304.2191 -284.5088 30633.8760 -67.4119 -17.3774
ENERGY: 900000 5.6911 39.6876 32.2262 0.0000 -10775.2371 1467.0069 0.0000 0.0000 1778.3463 -7452.2791 300.3539 -9230.6254 -7506.3169 301.8364 881.2455 885.2543 30143.1170 -80.4968 -33.0684
ENERGY: 1200000 7.1513 37.3827 29.0657 0.0000 -10862.5227 1473.2784 0.0000 0.0000 1763.7084 -7551.9363 297.8817 -9315.6447 -7522.3011 301.2678 100.0032 194.5597 30734.5194 -28.6086 20.3427
ENERGY: 1500000 8.4807 35.2642 28.3363 0.0000 -10638.5309 1317.6937 0.0000 0.0000 1784.2317 -7464.5244 301.3480 -9248.7561 -7519.2626 301.1981 -391.6475 -345.4775 29926.9399 57.7529 115.2987
TCL: Running FEP window  13: Lambda1 0.39999999999999963 Lambda2 0.34999999999999964 [dLambda -0.04999999999999999]
TCL: Setting parameter firsttimestep to 0
TCL: Setting parameter alchLambda to 0.39999999999999963
Info: NONBONDED TABLE R-SQUARED SPACING: 0.0625
Info: NONBONDED TABLE SIZE: 705 POINTS
TCL: Setting parameter alchLambda2 to 0.34999999999999964
Info: NONBONDED TABLE R-SQUARED SPACING: 0.0625
Info: NONBONDED TABLE SIZE: 705 POINTS
TCL: Running for 1500000 steps
ETITLE: TS BOND ANGLE DIHED IMPRP ELECT VDW BOUNDARY MISC KINETIC TOTAL TEMP POTENTIAL TOTALAVG TEMPAVG PRESSURE GPRESSURE VOLUME PRESSAVG GPRESSAVG
ENERGY: 0 8.4807 35.2642 28.3363 0.0000 -10638.5322 1317.7262 0.0000 0.0000 1783.3639 -7465.3610 301.2014 -9248.7248 -7465.3610 301.2014 -453.8005 -361.5082 29926.9399 -453.8005 -361.5082
ENERGY: 300000 6.9945 39.8310 29.1947 0.0000 -10858.6879 1433.6372 0.0000 0.0000 1802.1117 -7546.9189 304.3678 -9349.0306 -7480.3835 303.4763 3.4461 18.3004 30467.4164 -322.9243 -258.0319
ENERGY: 600000 5.2964 42.4673 31.3947 0.0000 -10994.5421 1555.6905 0.0000 0.0000 1848.1057 -7511.5875 312.1360 -9359.6932 -7490.8433 303.8942 970.3578 1014.3194 30131.6227 -16.6661 46.6710
ENERGY: 900000 11.5263 48.9198 29.2175 0.0000 -10712.6733 1374.3735 0.0000 0.0000 1853.6624 -7394.9739 313.0745 -9248.6363 -7475.0864 304.5676 -456.6795 -359.4897 30372.1476 -37.1816 23.3770
ENERGY: 1200000 5.3061 38.7878 29.8043 0.0000 -10668.6545 1321.3317 0.0000 0.0000 1782.6796 -7490.7449 301.0858 -9273.4246 -7484.6569 303.7889 -877.8615 -825.8946 31127.5697 -69.8952 -8.1818
ENERGY: 1500000 8.9225 41.1379 30.0882 0.0000 -10671.7905 1318.5921 0.0000 0.0000 1838.6863 -7434.3634 310.5451 -9273.0497 -7478.5766 303.7617 -823.6369 -798.1542 30870.9959 -179.0589 -116.1673
TCL: Running FEP window  14: Lambda1 0.34999999999999964 Lambda2 0.29999999999999966 [dLambda -0.04999999999999999]
TCL: Setting parameter firsttimestep to 0
TCL: Setting parameter alchLambda to 0.34999999999999964
Info: NONBONDED TABLE R-SQUARED SPACING: 0.0625
Info: NONBONDED TABLE SIZE: 705 POINTS
TCL: Setting parameter alchLambda2 to 0.29999999999999966
Info: NONBONDED TABLE R-SQUARED SPACING: 0.0625
Info: NONBONDED TABLE SIZE: 705 POINTS
TCL: Running for 1500000 steps
ETITLE: TS BOND ANGLE DIHED IMPRP ELECT VDW BOUNDARY MISC KINETIC TOTAL TEMP POTENTIAL TOTALAVG TEMPAVG PRESSURE GPRESSURE VOLUME PRESSAVG GPRESSAVG
ENERGY: 0 8.9225 41.1379 30.0882 0.0000 -10671.7913 1318.5523 0.0000 0.0000 1837.7745 -7435.3160 310.3911 -9273.0905 -7435.3160 310.3911 -889.0860 -810.1378 30870.9959 -889.0860 -810.1378
ENERGY: 300000 8.7834 39.4935 30.2905 0.0000 -10819.7187 1405.1736 0.0000 0.0000 1777.6532 -7558.3244 300.2369 -9335.9776 -7503.3343 299.5854 -247.2741 -233.6706 30323.6710 -357.8011 -301.1099
ENERGY: 600000 5.6740 45.3310 34.3493 0.0000 -10799.1568 1351.2781 0.0000 0.0000 1734.9250 -7627.5994 293.0203 -9362.5244 -7536.2614 296.8652 -1029.3761 -963.2579 30571.6889 -364.2468 -316.2486
ENERGY: 900000 5.2976 36.4716 34.4874 0.0000 -10842.4091 1439.2126 0.0000 0.0000 1785.5404 -7541.3996 301.5690 -9326.9399 -7528.0302 299.3533 23.0039 68.9067 30356.5827 -218.0196 -172.2176
ENERGY: 1200000 7.9181 37.0960 30.2954 0.0000 -10902.7033 1490.5033 0.0000 0.0000 1803.0999 -7533.7906 304.5347 -9336.8905 -7527.0959 300.0764 364.2978 439.4606 30151.2671 -158.6816 -116.5166
ENERGY: 1500000 11.6312 35.3386 33.0537 0.0000 -10879.3229 1474.6426 0.0000 0.0000 1742.7726 -7581.8841 294.3457 -9324.6567 -7525.7010 300.6591 583.7815 679.0190 30090.0855 -97.2468 -42.5070
TCL: Running FEP window  15: Lambda1 0.29999999999999966 Lambda2 0.24999999999999967 [dLambda -0.04999999999999999]
TCL: Setting parameter firsttimestep to 0
TCL: Setting parameter alchLambda to 0.29999999999999966
Info: NONBONDED TABLE R-SQUARED SPACING: 0.0625
Info: NONBONDED TABLE SIZE: 705 POINTS
TCL: Setting parameter alchLambda2 to 0.24999999999999967
Info: NONBONDED TABLE R-SQUARED SPACING: 0.0625
Info: NONBONDED TABLE SIZE: 705 POINTS
TCL: Running for 1500000 steps
ETITLE: TS BOND ANGLE DIHED IMPRP ELECT VDW BOUNDARY MISC KINETIC TOTAL TEMP POTENTIAL TOTALAVG TEMPAVG PRESSURE GPRESSURE VOLUME PRESSAVG GPRESSAVG
ENERGY: 0 11.6312 35.3386 33.0537 0.0000 -10879.3232 1475.5436 0.0000 0.0000 1741.8412 -7581.9149 294.1884 -9323.7560 -7581.9149 294.1884 601.1272 675.0509 30090.0855 601.1272 675.0509
ENERGY: 300000 5.9447 32.3598 31.7500 0.0000 -10744.5434 1417.4581 0.0000 0.0000 1790.7460 -7466.2849 302.4482 -9257.0309 -7550.0703 296.6762 164.5159 230.9612 30361.9351 408.7621 482.3411
ENERGY: 600000 5.6270 38.2607 32.9780 0.0000 -10991.5879 1537.1942 0.0000 0.0000 1755.7382 -7621.7898 296.5355 -9377.5280 -7553.2505 299.1286 784.7563 845.4240 30247.5239 233.9516 314.2266
ENERGY: 900000 4.7431 40.8329 28.2631 0.0000 -10770.4258 1409.6042 0.0000 0.0000 1751.4270 -7535.5555 295.8074 -9286.9825 -7547.1479 298.1864 243.6719 361.0479 29908.9133 121.1450 203.9219
ENERGY: 1200000 11.4058 34.6308 30.1548 0.0000 -10790.5458 1445.3431 0.0000 0.0000 1856.0317 -7412.9794 313.4746 -9269.0112 -7524.2282 299.6256 98.9444 179.0659 30497.2020 150.4122 233.0973
ENERGY: 1500000 9.1002 33.5701 32.2791 0.0000 -10826.3347 1458.0278 0.0000 0.0000 1788.5110 -7504.8465 302.0707 -9293.3575 -7515.0644 300.2040 314.3623 366.1917 30366.3695 202.7437 276.0516
TCL: Running FEP window  16: Lambda1 0.24999999999999967 Lambda2 0.19999999999999968 [dLambda -0.04999999999999999]
TCL: Setting parameter firsttimestep to 0
TCL: Setting parameter alchLambda to 0.24999999999999967
Info: NONBONDED TABLE R-SQUARED SPACING: 0.0625
Info: NONBONDED TABLE SIZE: 705 POINTS
TCL: Setting parameter alchLambda2 to 0.19999999999999968
Info: NONBONDED TABLE R-SQUARED SPACING: 0.0625
Info: NONBONDED TABLE SIZE: 705 POINTS
TCL: Running for 1500000 steps
ETITLE: TS BOND ANGLE DIHED IMPRP ELECT VDW BOUNDARY MISC KINETIC TOTAL TEMP POTENTIAL TOTALAVG TEMPAVG PRESSURE GPRESSURE VOLUME PRESSAVG GPRESSAVG
ENERGY: 0 9.1002 33.5701 32.2791 0.0000 -10826.3359 1458.8288 0.0000 0.0000 1787.6414 -7504.9164 301.9238 -9292.5578 -7504.9164 301.9238 283.6817 362.8161 30366.3695 283.6817 362.8161
ENERGY: 300000 2.8103 35.1161 33.6643 0.0000 -10740.7528 1381.1797 0.0000 0.0000 1771.5261 -7516.4563 299.2020 -9287.9823 -7527.6026 300.0961 -247.1055 -214.6943 30427.7030 -344.0481 -298.2476
ENERGY: 600000 5.3623 40.3702 28.7386 0.0000 -10846.0327 1414.2083 0.0000 0.0000 1774.2023 -7583.1510 299.6540 -9357.3533 -7520.4280 301.9072 -526.0921 -506.0693 30658.9060 -260.5978 -224.7002
ENERGY: 900000 7.6616 38.3371 32.1406 0.0000 -10809.7303 1395.2630 0.0000 0.0000 1811.1969 -7525.1310 305.9023 -9336.3280 -7516.7724 301.8864 -399.8793 -372.7731 30483.9443 -330.3716 -294.3809
ENERGY: 1200000 8.1133 32.6439 30.2487 0.0000 -10844.3076 1419.7782 0.0000 0.0000 1722.2782 -7631.2453 290.8843 -9353.5235 -7527.9654 300.5017 -383.8403 -286.9189 30401.2635 -328.4773 -282.9106
ENERGY: 1500000 10.2776 35.9446 31.0191 0.0000 -10816.7860 1432.4668 0.0000 0.0000 1775.5797 -7531.4982 299.8867 -9307.0779 -7525.6348 300.2520 -406.6155 -387.8406 30473.7058 -339.4411 -289.7209
TCL: Running FEP window  17: Lambda1 0.19999999999999968 Lambda2 0.1499999999999997 [dLambda -0.04999999999999999]
TCL: Setting parameter firsttimestep to 0
TCL: Setting parameter alchLambda to 0.19999999999999968
Info: NONBONDED TABLE R-SQUARED SPACING: 0.0625
Info: NONBONDED TABLE SIZE: 705 POINTS
TCL: Setting parameter alchLambda2 to 0.1499999999999997
Info: NONBONDED TABLE R-SQUARED SPACING: 0.0625
Info: NONBONDED TABLE SIZE: 705 POINTS
TCL: Running for 1500000 steps
ETITLE: TS BOND ANGLE DIHED IMPRP ELECT VDW BOUNDARY MISC KINETIC TOTAL TEMP POTENTIAL TOTALAVG TEMPAVG PRESSURE GPRESSURE VOLUME PRESSAVG GPRESSAVG
ENERGY: 0 10.2776 35.9446 31.0192 0.0000 -10816.7861 1433.6635 0.0000 0.0000 1774.6761 -7531.2052 299.7341 -9305.8813 -7531.2052 299.7341 -464.8900 -384.9917 30473.7058 -464.8900 -384.9917
ENERGY: 300000 6.0030 33.6299 31.4028 0.0000 -10833.0758 1508.0781 0.0000 0.0000 1802.4666 -7451.4954 304.4277 -9253.9620 -7511.9793 297.7563 692.3038 732.3705 30584.8882 -179.9927 -131.5457
ENERGY: 600000 9.6166 38.4622 30.4670 0.0000 -10689.7267 1395.6587 0.0000 0.0000 1799.1368 -7416.3854 303.8654 -9215.5222 -7484.9368 300.6691 246.1515 308.3740 30010.1449 -311.3650 -249.3405
ENERGY: 900000 6.6379 31.8170 28.9493 0.0000 -10906.2925 1426.5645 0.0000 0.0000 1757.8945 -7654.4294 296.8997 -9412.3239 -7503.3911 300.7708 -271.7085 -125.3162 30110.6170 -124.3470 -61.3380
ENERGY: 1200000 8.3362 34.3518 30.8824 0.0000 -10686.0086 1407.9162 0.0000 0.0000 1822.9736 -7381.5484 307.8913 -9204.5221 -7495.4315 302.0919 249.8622 274.8997 30233.4720 -91.0122 -28.7319
ENERGY: 1500000 8.3016 33.3109 27.7309 0.0000 -10794.5886 1410.7897 0.0000 0.0000 1771.4644 -7542.9911 299.1916 -9314.4555 -7499.5941 302.2249 -250.8012 -198.0302 30249.8279 -154.1267 -92.8918
TCL: Running FEP window  18: Lambda1 0.1499999999999997 Lambda2 0.09999999999999969 [dLambda -0.05 ]
TCL: Setting parameter firsttimestep to 0
TCL: Setting parameter alchLambda to 0.1499999999999997
Info: NONBONDED TABLE R-SQUARED SPACING: 0.0625
Info: NONBONDED TABLE SIZE: 705 POINTS
TCL: Setting parameter alchLambda2 to 0.09999999999999969
Info: NONBONDED TABLE R-SQUARED SPACING: 0.0625
Info: NONBONDED TABLE SIZE: 705 POINTS
TCL: Running for 1500000 steps
ETITLE: TS BOND ANGLE DIHED IMPRP ELECT VDW BOUNDARY MISC KINETIC TOTAL TEMP POTENTIAL TOTALAVG TEMPAVG PRESSURE GPRESSURE VOLUME PRESSAVG GPRESSAVG
ENERGY: 0 8.3016 33.3109 27.7309 0.0000 -10794.5883 1410.3859 0.0000 0.0000 1770.5571 -7544.3019 299.0384 -9314.8590 -7544.3019 299.0384 -276.2322 -209.1973 30249.8279 -276.2322 -209.1973
ENERGY: 300000 5.1387 32.7060 31.7950 0.0000 -10818.0493 1394.2849 0.0000 0.0000 1771.1694 -7582.9553 299.1418 -9354.1247 -7529.6903 299.2759 -451.3617 -399.7597 30029.9471 -187.7719 -117.4891
ENERGY: 600000 7.6611 29.7958 33.4023 0.0000 -10802.8075 1415.4484 0.0000 0.0000 1790.6783 -7525.8217 302.4367 -9316.4999 -7557.0986 299.2865 -73.4737 8.6189 30184.8238 -46.9832 22.0971
ENERGY: 900000 5.9801 35.2530 28.6126 0.0000 -10775.2374 1431.8319 0.0000 0.0000 1801.9413 -7471.6185 304.3390 -9273.5598 -7533.7489 300.2451 5.9660 64.3435 30174.4850 -176.5326 -104.7437
ENERGY: 1200000 8.0923 45.5719 34.8519 0.0000 -10733.8089 1352.6527 0.0000 0.0000 1760.3562 -7532.2840 297.3155 -9292.6402 -7520.9731 300.0968 -638.1985 -568.4634 29991.2168 -114.4997 -42.4038
ENERGY: 1500000 11.3209 36.6240 29.7956 0.0000 -10740.0349 1391.5595 0.0000 0.0000 1777.3085 -7493.4265 300.1787 -9270.7350 -7512.8217 300.1805 -213.1165 -158.8144 30733.5917 -143.0084 -70.2536
TCL: Running FEP window  19: Lambda1 0.09999999999999969 Lambda2 0.049999999999999684 [dLambda -0.05 ]
TCL: Setting parameter firsttimestep to 0
TCL: Setting parameter alchLambda to 0.09999999999999969
Info: NONBONDED TABLE R-SQUARED SPACING: 0.0625
Info: NONBONDED TABLE SIZE: 705 POINTS
TCL: Setting parameter alchLambda2 to 0.049999999999999684
Info: NONBONDED TABLE R-SQUARED SPACING: 0.0625
Info: NONBONDED TABLE SIZE: 705 POINTS
TCL: Running for 1500000 steps
ETITLE: TS BOND ANGLE DIHED IMPRP ELECT VDW BOUNDARY MISC KINETIC TOTAL TEMP POTENTIAL TOTALAVG TEMPAVG PRESSURE GPRESSURE VOLUME PRESSAVG GPRESSAVG
ENERGY: 0 11.3209 36.6240 29.7956 0.0000 -10740.0329 1391.9288 0.0000 0.0000 1776.4124 -7493.9513 300.0273 -9270.3637 -7493.9513 300.0273 -248.8546 -163.6634 30733.5917 -248.8546 -163.6634
ENERGY: 300000 10.0706 43.4194 30.4395 0.0000 -10921.4312 1486.2008 0.0000 0.0000 1755.1754 -7596.1254 296.4405 -9351.3008 -7589.1777 296.1015 632.7418 760.7526 29877.5804 196.3552 267.7304
ENERGY: 600000 12.9996 34.2698 28.8997 0.0000 -10764.5252 1435.6918 0.0000 0.0000 1795.3679 -7457.2963 303.2288 -9252.6642 -7563.7933 296.3050 24.2995 96.8914 30259.5342 125.5237 191.0456
ENERGY: 900000 6.8236 37.5137 29.0190 0.0000 -10724.7847 1377.7662 0.0000 0.0000 1807.8339 -7465.8283 305.3343 -9273.6622 -7546.9319 298.0952 -209.5858 -187.6021 30100.1504 32.0192 92.9424
ENERGY: 1200000 4.0806 41.4733 28.2392 0.0000 -10822.5877 1521.2243 0.0000 0.0000 1765.0856 -7462.4846 298.1143 -9227.5702 -7527.4904 299.2275 542.9298 636.0176 30712.7805 39.5354 103.6991
ENERGY: 1500000 14.8665 41.1087 33.1596 0.0000 -10620.4317 1339.6575 0.0000 0.0000 1784.7954 -7406.8439 301.4432 -9191.6394 -7519.1433 299.0355 -1130.8998 -1029.0203 30324.7367 -17.6336 48.5933
TCL: Running FEP window  20: Lambda1 0.049999999999999684 Lambda2 0.0    [dLambda -0.049999999999999684]
TCL: Setting parameter firsttimestep to 0
TCL: Setting parameter alchLambda to 0.049999999999999684
Info: NONBONDED TABLE R-SQUARED SPACING: 0.0625
Info: NONBONDED TABLE SIZE: 705 POINTS
TCL: Setting parameter alchLambda2 to 0.0
Info: NONBONDED TABLE R-SQUARED SPACING: 0.0625
Info: NONBONDED TABLE SIZE: 705 POINTS
TCL: Running for 1500000 steps
ETITLE: TS BOND ANGLE DIHED IMPRP ELECT VDW BOUNDARY MISC KINETIC TOTAL TEMP POTENTIAL TOTALAVG TEMPAVG PRESSURE GPRESSURE VOLUME PRESSAVG GPRESSAVG
ENERGY: 0 14.8665 41.1087 33.1596 0.0000 -10620.4311 1339.3715 0.0000 0.0000 1783.8909 -7408.0339 301.2904 -9191.9248 -7408.0339 301.2904 -1130.9089 -1038.5266 30324.7367 -1130.9089 -1038.5266
ENERGY: 300000 6.5179 46.2104 29.2090 0.0000 -10884.0112 1498.1639 0.0000 0.0000 1766.8345 -7537.0754 298.4097 -9303.9099 -7539.2123 298.4417 290.2641 370.0862 30101.8389 -128.3867 -57.8566
ENERGY: 600000 9.3072 34.0144 29.4602 0.0000 -10815.8239 1439.3647 0.0000 0.0000 1734.9354 -7568.7420 293.0221 -9303.6774 -7541.2643 298.9089 -78.1586 -3.2805 29915.7720 -98.3011 -36.4308
ENERGY: 900000 6.2111 49.0552 26.6345 0.0000 -10855.1733 1406.2201 0.0000 0.0000 1767.7338 -7599.3187 298.5615 -9367.0525 -7545.8409 299.9082 -391.5165 -338.9912 29994.9370 -111.8649 -52.2401
ENERGY: 1200000 7.5278 36.1967 27.1249 0.0000 -10774.5069 1450.1644 0.0000 0.0000 1775.7724 -7477.7207 299.9192 -9253.4930 -7536.8919 299.8865 275.8046 327.3207 30438.0400 -49.8366 17.4977
ENERGY: 1500000 8.1129 34.4187 41.8345 0.0000 -10889.2751 1430.1795 0.0000 0.0000 1740.2267 -7634.5028 293.9157 -9374.7295 -7542.7317 299.6599 -450.5759 -392.7404 30550.9776 -46.8603 21.1481
TCL: Exiting due to exit command.
