Info: SIMULATION PARAMETERS:
Info: TIMESTEP               2
Info: NUMBER OF STEPS        0
Info: STEPS PER CYCLE        10
Info: PERIODIC CELL BASIS 1  30.7653 0 0
Info: PERIODIC CELL BASIS 2  0 31.6851 0
Info: PERIODIC CELL BASIS 3  0 0 30.7371
Info: PERIODIC CELL CENTER   0 0 0
Info: WRAPPING WATERS AROUND PERIODIC BOUNDARIES ON OUTPUT.
Info: WRAPPING ALL CLUSTERS AROUND PERIODIC BOUNDARIES ON OUTPUT.
Info: FIRST LDB TIMESTEP     50
Info: LAST LDB TIMESTEP     -1
Info: HOM BACKGROUND SCALING 1
Info: PME BACKGROUND SCALING 1
Info: MIN ATOMS PER PATCH    40
Info: EMPTY PATCH LOAD       40 ATOMS
Info: VELOCITY FILE          mobley_8614858_equil.vel
Info: CENTER OF MASS MOVING INITIALLY? NO
Info: DIELECTRIC             1
Info: EXCLUDE                SCALED ONE-FOUR
Info: 1-4 ELECTROSTATICS SCALED BY 0.833333
Info: MODIFIED 1-4 VDW PARAMETERS WILL BE USED
Info: DCD FILENAME           mobley_8614858_prod.dcd
Info: DCD FREQUENCY          100000
Info: DCD FIRST STEP         100000
Info: DCD FILE WILL CONTAIN UNIT CELL DATA
Info: XST FILENAME           mobley_8614858_prod.xst
Info: XST FREQUENCY          100000
Info: NO VELOCITY DCD OUTPUT
Info: NO FORCE DCD OUTPUT
Info: OUTPUT FILENAME        mobley_8614858_prod
Info: BINARY OUTPUT FILES WILL BE USED
Info: RESTART FILENAME       mobley_8614858_prod.restart
Info: RESTART FREQUENCY      100000
Info: BINARY RESTART FILES WILL BE USED
Info: CUTOFF                 9
Info: PAIRLIST DISTANCE      11
Info: PAIRLIST SHRINK RATE   0.01
Info: PAIRLIST GROW RATE     0.01
Info: PAIRLIST TRIGGER       0.3
Info: PAIRLISTS PER CYCLE    2
Info: PAIRLISTS ENABLED
Info: MARGIN                 2
Info: HYDROGEN GROUP CUTOFF  2.5
Info: PATCH DIMENSION        15.5
Info: ENERGY OUTPUT STEPS    100000
Info: ENERGY EVALUATION STEPS    100000
Info: OUTPUT ENERGY PRECISION 4
Info: CROSSTERM ENERGY INCLUDED IN DIHEDRAL
Info: TIMING OUTPUT STEPS    1000000
Info: PRESSURE OUTPUT STEPS  100000
Info: ALCHEMICAL FEP ON
Info: FEP CURRENT LAMBDA VALUE     0
Info: FEP COMPARISON LAMBDA VALUE  0.05
Info: FEP INTRA-ALCHEMICAL NON-BONDED INTERACTIONS WILL BE RETAINED
Info: FEP INTRA-ALCHEMICAL BONDED INTERACTIONS WILL BE RETAINED
Info: FEP VDW SHIFTING COEFFICIENT 5
Info: FEP ELEC. ACTIVE FOR ANNIHILATED PARTICLES BETWEEN LAMBDA = 0 AND LAMBDA = 0.5
Info: FEP ELEC. ACTIVE FOR EXNIHILATED PARTICLES BETWEEN LAMBDA = 0.5 AND LAMBDA = 1
Info: FEP VDW ACTIVE FOR ANNIHILATED PARTICLES BETWEEN LAMBDA = 0 AND LAMBDA = 1
Info: FEP VDW ACTIVE FOR EXNIHILATED PARTICLES BETWEEN LAMBDA = 0 AND LAMBDA = 1
Info: FEP BOND ACTIVE FOR ANNIHILATED PARTICLES BETWEEN LAMBDA = 1 AND LAMBDA = 1
Info: FEP BOND ACTIVE FOR EXNIHILATED PARTICLES BETWEEN LAMBDA = 0 AND LAMBDA = 0
Info: LANGEVIN DYNAMICS ACTIVE
Info: LANGEVIN TEMPERATURE   300
Info: LANGEVIN USING BBK INTEGRATOR
Info: LANGEVIN DAMPING COEFFICIENT IS 1 INVERSE PS
Info: LANGEVIN DYNAMICS APPLIED TO HYDROGENS
Info: LANGEVIN PISTON PRESSURE CONTROL ACTIVE
Info:        TARGET PRESSURE IS 1.01325 BAR
Info:     OSCILLATION PERIOD IS 50 FS
Info:             DECAY TIME IS 25 FS
Info:     PISTON TEMPERATURE IS 300 K
Info:       PRESSURE CONTROL IS GROUP-BASED
Info:    INITIAL STRAIN RATE IS -0.000217002 -0.000217002 -0.000217002
Info:       CELL FLUCTUATION IS ISOTROPIC
Info: PARTICLE MESH EWALD (PME) ACTIVE
Info: PME TOLERANCE               1e-06
Info: PME EWALD COEFFICIENT       0.348832
Info: PME INTERPOLATION ORDER     4
Info: PME GRID DIMENSIONS         32 32 32
Info: PME MAXIMUM GRID SPACING    1
Info: PME CALCULATION WILL BE PERFORMED ON GPU
Info: FULL ELECTROSTATIC EVALUATION FREQUENCY      2
Info: USING VERLET I (r-RESPA) MTS SCHEME.
Info: C1 SPLITTING OF LONG RANGE ELECTROSTATICS
Info: PLACING ATOMS IN PATCHES BY HYDROGEN GROUPS
Info: RIGID BONDS TO HYDROGEN : ALL
Info:         ERROR TOLERANCE : 1e-08
Info:          MAX ITERATIONS : 100
Info: RIGID WATER USING SETTLE ALGORITHM
Info: RANDOM NUMBER SEED     1743980478
Info: USE HYDROGEN BONDS?    NO
Info: Using AMBER format force field!
Info: AMBER PARM FILE        mobley_8614858.prmtop
Info: COORDINATE PDB         mobley_8614858.pdb
Info: Exclusions will be read from PARM file!
Info: SCNB (VDW SCALING)     2
Info: USING ARITHMETIC MEAN TO COMBINE L-J SIGMA PARAMETERS
Info: BINARY COORDINATES     mobley_8614858_equil.coor
Info: SUMMARY OF PARAMETERS:
Info: 4 BONDS
Info: 3 ANGLES
Info:   3 HARMONIC
Info:   0 COSINE-BASED
Info: 5 DIHEDRAL
Info: 0 IMPROPER
Info: 0 CROSSTERM
Info: 0 VDW
Info: 10 VDW_PAIRS
Info: 0 NBTHOLE_PAIRS
Info: To read alchdata from file: mobley_8614858.pdb
Info: To read alchflag data from column: 5
Info: STRUCTURE SUMMARY:
Info: 2906 ATOMS
Info: 2905 BONDS
Info: 42 ANGLES
Info: 62 DIHEDRALS
Info: 0 IMPROPERS
Info: 0 CROSSTERMS
Info: 3001 EXCLUSIONS
Info: 2899 RIGID BONDS
Info: ALCH: 0 ATOMS TO DISAPPEAR IN FINAL STATE
Info: ALCH: 23 ATOMS TO APPEAR IN FINAL STATE
Info: 5819 DEGREES OF FREEDOM
Info: 968 HYDROGEN GROUPS
Info: 4 ATOMS IN LARGEST HYDROGEN GROUP
Info: 968 MIGRATION GROUPS
Info: 4 ATOMS IN LARGEST MIGRATION GROUP
Info: TOTAL MASS = 17413.6 amu
Info: TOTAL CHARGE = 0.00060001 e
Info: MASS DENSITY = 0.965093 g/cm^3
Info: ATOM DENSITY = 0.0969879 atoms/A^3
Info: ADDED 0 IMPLICIT EXCLUSIONS
Info: NONBONDED TABLE R-SQUARED SPACING: 0.0625
Info: NONBONDED TABLE SIZE: 705 POINTS
Info: REMOVING COM VELOCITY 0.0524781 -0.0305226 -0.0766099
Info: Use 3D box decompostion in PME FFT.
Info: Updated CUDA force table with 4096 elements.
Info: Updated CUDA LJ table with 4 x 4 elements.
Info: Found 26 unique exclusion lists needing 80 bytes
TCL: Running for 1500000 steps
ETITLE: TS BOND ANGLE DIHED IMPRP ELECT VDW BOUNDARY MISC KINETIC TOTAL TEMP POTENTIAL TOTALAVG TEMPAVG PRESSURE GPRESSURE VOLUME PRESSAVG GPRESSAVG
ENERGY: 0 4.7176 11.4623 2.7929 0.0000 -10441.6814 1349.0416 0.0000 0.0000 1785.4452 -7288.2218 308.8080 -9073.6670 -7288.2218 308.8080 -648.3210 -561.5493 29962.5064 -648.3210 -561.5493
ENERGY: 300000 2.3285 10.9415 3.4447 0.0000 -10632.6843 1483.3590 0.0000 0.0000 1737.8150 -7394.7955 300.5700 -9132.6105 -7335.8030 302.3345 278.2405 384.0585 29604.5117 -215.6561 -152.6313
ENERGY: 600000 2.9385 11.9850 4.1910 0.0000 -10527.7728 1458.3748 0.0000 0.0000 1745.4867 -7304.7969 301.8968 -9050.2836 -7311.0609 303.3094 142.8382 141.4428 29975.1814 -121.8466 -68.0212
ENERGY: 900000 0.9819 12.0887 3.7488 0.0000 -10448.1932 1374.3348 0.0000 0.0000 1752.1361 -7304.9030 303.0469 -9057.0391 -7321.8143 301.7816 -402.2307 -325.8490 29810.9382 -235.9649 -181.0352
ENERGY: 1200000 1.7547 11.6777 3.7548 0.0000 -10470.5715 1396.3122 0.0000 0.0000 1725.8847 -7331.1874 298.5065 -9057.0721 -7320.3965 301.8625 136.5984 153.5504 29500.3901 -120.8289 -68.6446
ENERGY: 1500000 0.3252 14.7013 3.4789 0.0000 -10489.5397 1462.7733 0.0000 0.0000 1708.0221 -7300.2389 295.4170 -9008.2610 -7329.4240 300.4808 402.1988 471.8434 29907.3084 -60.2982 -13.0485
TCL: Running FEP window   2: Lambda1 0.05   Lambda2 0.1    [dLambda 0.05  ]
TCL: Setting parameter firsttimestep to 0
TCL: Setting parameter alchLambda to 0.05
Info: NONBONDED TABLE R-SQUARED SPACING: 0.0625
Info: NONBONDED TABLE SIZE: 705 POINTS
TCL: Setting parameter alchLambda2 to 0.1
Info: NONBONDED TABLE R-SQUARED SPACING: 0.0625
Info: NONBONDED TABLE SIZE: 705 POINTS
TCL: Running for 1500000 steps
ETITLE: TS BOND ANGLE DIHED IMPRP ELECT VDW BOUNDARY MISC KINETIC TOTAL TEMP POTENTIAL TOTALAVG TEMPAVG PRESSURE GPRESSURE VOLUME PRESSAVG GPRESSAVG
ENERGY: 0 0.3252 14.7013 3.4789 0.0000 -10489.5409 1468.4839 0.0000 0.0000 1707.1967 -7295.3550 295.2743 -9002.5517 -7295.3550 295.2743 392.2960 483.2698 29907.3084 392.2960 483.2698
ENERGY: 300000 2.7020 12.8801 4.6858 0.0000 -10645.8303 1434.8976 0.0000 0.0000 1736.7771 -7453.8877 300.3904 -9190.6648 -7324.1814 301.0989 -391.4298 -381.7863 29690.4416 -173.1759 -113.5360
ENERGY: 600000 2.0482 8.7520 2.6023 0.0000 -10484.2075 1458.8539 0.0000 0.0000 1747.9012 -7264.0499 302.3144 -9011.9510 -7305.6664 301.5535 336.1275 371.8490 29915.1308 -137.0552 -85.4123
ENERGY: 900000 0.7934 7.6154 2.2311 0.0000 -10546.7390 1487.2404 0.0000 0.0000 1736.3494 -7312.5093 300.3165 -9048.8587 -7323.2707 301.1494 689.0932 707.1509 29588.6390 10.7006 60.6097
ENERGY: 1200000 1.0530 5.4249 2.4173 0.0000 -10604.9308 1473.1898 0.0000 0.0000 1748.2156 -7374.6302 302.3688 -9122.8458 -7326.9757 301.3377 463.9650 498.0302 29363.1199 18.9857 71.3446
ENERGY: 1500000 2.5791 6.1406 5.5845 0.0000 -10566.0926 1478.9323 0.0000 0.0000 1703.3993 -7369.4568 294.6175 -9072.8561 -7324.8703 300.9424 554.9849 656.6309 29469.2720 66.6837 126.6321
TCL: Running FEP window   3: Lambda1 0.1    Lambda2 0.15000000000000002 [dLambda 0.05000000000000002]
TCL: Setting parameter firsttimestep to 0
TCL: Setting parameter alchLambda to 0.1
Info: NONBONDED TABLE R-SQUARED SPACING: 0.0625
Info: NONBONDED TABLE SIZE: 705 POINTS
TCL: Setting parameter alchLambda2 to 0.15000000000000002
Info: NONBONDED TABLE R-SQUARED SPACING: 0.0625
Info: NONBONDED TABLE SIZE: 705 POINTS
TCL: Running for 1500000 steps
ETITLE: TS BOND ANGLE DIHED IMPRP ELECT VDW BOUNDARY MISC KINETIC TOTAL TEMP POTENTIAL TOTALAVG TEMPAVG PRESSURE GPRESSURE VOLUME PRESSAVG GPRESSAVG
ENERGY: 0 2.5791 6.1406 5.5845 0.0000 -10566.0917 1480.7585 0.0000 0.0000 1702.5314 -7368.4975 294.4674 -9071.0289 -7368.4975 294.4674 584.8235 666.0864 29469.2720 584.8235 666.0864
ENERGY: 300000 0.9737 12.4203 3.0054 0.0000 -10545.8296 1491.2656 0.0000 0.0000 1713.2214 -7324.9432 296.3163 -9038.1646 -7354.5437 296.6736 530.4802 633.2530 29757.3599 204.4063 280.7275
ENERGY: 600000 2.4948 10.5484 5.4652 0.0000 -10505.7683 1371.1527 0.0000 0.0000 1734.3163 -7381.7909 299.9648 -9116.1072 -7346.7314 298.1866 -525.9696 -481.5436 29829.9968 7.2090 72.9894
ENERGY: 900000 2.9747 13.6970 3.6434 0.0000 -10476.8804 1374.8113 0.0000 0.0000 1727.9851 -7353.7689 298.8698 -9081.7539 -7336.8636 299.1657 -465.5270 -434.5653 29843.9129 -79.9140 -18.1274
ENERGY: 1200000 1.3863 10.9055 2.5203 0.0000 -10579.8822 1451.9719 0.0000 0.0000 1721.9011 -7391.1971 297.8175 -9113.0983 -7347.8111 298.7615 95.8655 134.2616 29671.9747 -11.9419 44.7803
ENERGY: 1500000 1.7695 9.4527 3.6592 0.0000 -10436.2081 1433.5561 0.0000 0.0000 1665.4813 -7322.2894 288.0592 -8987.7707 -7347.9508 297.9599 388.7287 435.2930 29560.7144 15.2188 77.2064
TCL: Running FEP window   4: Lambda1 0.15000000000000002 Lambda2 0.2    [dLambda 0.04999999999999999]
TCL: Setting parameter firsttimestep to 0
TCL: Setting parameter alchLambda to 0.15000000000000002
Info: NONBONDED TABLE R-SQUARED SPACING: 0.0625
Info: NONBONDED TABLE SIZE: 705 POINTS
TCL: Setting parameter alchLambda2 to 0.2
Info: NONBONDED TABLE R-SQUARED SPACING: 0.0625
Info: NONBONDED TABLE SIZE: 705 POINTS
TCL: Running for 1500000 steps
ETITLE: TS BOND ANGLE DIHED IMPRP ELECT VDW BOUNDARY MISC KINETIC TOTAL TEMP POTENTIAL TOTALAVG TEMPAVG PRESSURE GPRESSURE VOLUME PRESSAVG GPRESSAVG
ENERGY: 0 1.7695 9.4527 3.6592 0.0000 -10436.2082 1434.6205 0.0000 0.0000 1664.6478 -7322.0586 287.9151 -8986.7063 -7322.0586 287.9151 377.6148 446.1553 29560.7144 377.6148 446.1553
ENERGY: 300000 4.0822 13.3039 3.5693 0.0000 -10592.1840 1481.4200 0.0000 0.0000 1760.3355 -7329.4732 304.4651 -9089.8087 -7343.5782 298.3246 229.1866 265.2887 30054.2767 -135.7337 -65.5839
ENERGY: 600000 1.6616 13.6212 3.4098 0.0000 -10371.2425 1330.7943 0.0000 0.0000 1719.4651 -7302.2904 297.3962 -9021.7555 -7327.3363 299.5938 -946.4243 -947.4026 30562.9159 -311.8559 -249.3580
ENERGY: 900000 3.2980 12.0955 3.0089 0.0000 -10513.3972 1422.1302 0.0000 0.0000 1742.2965 -7330.5680 301.3451 -9072.8645 -7332.4673 299.3181 -353.7085 -312.0639 30436.4818 -311.2310 -255.5251
ENERGY: 1200000 2.3852 9.2427 3.5678 0.0000 -10537.2833 1421.4466 0.0000 0.0000 1746.7568 -7353.8841 302.1165 -9100.6409 -7338.5810 299.3953 -26.1550 6.3937 29468.8346 -269.0641 -213.6976
ENERGY: 1500000 1.5034 12.8514 2.5369 0.0000 -10485.7269 1411.8158 0.0000 0.0000 1735.7999 -7321.2196 300.2214 -9057.0195 -7332.4969 299.6438 -33.4719 63.0349 29530.7755 -113.4880 -54.9551
TCL: Running FEP window   5: Lambda1 0.2    Lambda2 0.25   [dLambda 0.04999999999999999]
TCL: Setting parameter firsttimestep to 0
TCL: Setting parameter alchLambda to 0.2
Info: NONBONDED TABLE R-SQUARED SPACING: 0.0625
Info: NONBONDED TABLE SIZE: 705 POINTS
TCL: Setting parameter alchLambda2 to 0.25
Info: NONBONDED TABLE R-SQUARED SPACING: 0.0625
Info: NONBONDED TABLE SIZE: 705 POINTS
TCL: Running for 1500000 steps
ETITLE: TS BOND ANGLE DIHED IMPRP ELECT VDW BOUNDARY MISC KINETIC TOTAL TEMP POTENTIAL TOTALAVG TEMPAVG PRESSURE GPRESSURE VOLUME PRESSAVG GPRESSAVG
ENERGY: 0 1.5034 12.8514 2.5369 0.0000 -10485.7268 1412.0135 0.0000 0.0000 1734.9310 -7321.8906 300.0711 -9056.8216 -7321.8906 300.0711 -9.1620 68.1422 29530.7755 -9.1620 68.1422
ENERGY: 300000 1.9718 14.4997 2.8693 0.0000 -10363.6413 1356.0565 0.0000 0.0000 1733.1657 -7255.0782 299.7658 -8988.2439 -7340.9717 295.9019 -345.1495 -302.3230 29840.3886 -131.1349 -78.2740
ENERGY: 600000 1.2009 10.5277 2.7530 0.0000 -10430.2833 1382.7569 0.0000 0.0000 1726.1635 -7306.8813 298.5547 -9033.0447 -7326.7411 298.9167 -140.6789 -109.0476 29843.0018 -206.6563 -151.9863
ENERGY: 900000 2.1134 15.4162 7.4455 0.0000 -10519.5662 1465.1704 0.0000 0.0000 1719.8407 -7309.5799 297.4612 -9029.4207 -7309.8967 299.7401 475.6400 532.3185 29558.2107 -73.9992 -14.4557
ENERGY: 1200000 3.7097 8.2362 2.5029 0.0000 -10644.9481 1494.0185 0.0000 0.0000 1725.9964 -7410.4844 298.5258 -9136.4808 -7316.8168 299.4842 436.3494 513.5357 29478.4798 -135.4185 -71.6984
ENERGY: 1500000 1.8428 16.9586 2.5492 0.0000 -10627.8820 1520.4896 0.0000 0.0000 1745.4092 -7340.6326 301.8834 -9086.0418 -7316.3478 299.0874 801.5192 818.0388 29577.5642 -57.5565 0.0509
TCL: Running FEP window   6: Lambda1 0.25   Lambda2 0.3    [dLambda 0.04999999999999999]
TCL: Setting parameter firsttimestep to 0
TCL: Setting parameter alchLambda to 0.25
Info: NONBONDED TABLE R-SQUARED SPACING: 0.0625
Info: NONBONDED TABLE SIZE: 705 POINTS
TCL: Setting parameter alchLambda2 to 0.3
Info: NONBONDED TABLE R-SQUARED SPACING: 0.0625
Info: NONBONDED TABLE SIZE: 705 POINTS
TCL: Running for 1500000 steps
ETITLE: TS BOND ANGLE DIHED IMPRP ELECT VDW BOUNDARY MISC KINETIC TOTAL TEMP POTENTIAL TOTALAVG TEMPAVG PRESSURE GPRESSURE VOLUME PRESSAVG GPRESSAVG
ENERGY: 0 1.8428 16.9586 2.5492 0.0000 -10627.8813 1521.1091 0.0000 0.0000 1744.5429 -7340.8787 301.7336 -9085.4217 -7340.8787 301.7336 751.5062 828.3804 29577.5642 751.5062 828.3804
ENERGY: 300000 2.7621 11.2911 3.4238 0.0000 -10570.5658 1512.0810 0.0000 0.0000 1750.6098 -7290.3981 302.7829 -9041.0078 -7333.2126 302.0685 785.3204 851.6519 29497.9212 416.8812 494.3957
ENERGY: 600000 1.5062 14.7422 2.3080 0.0000 -10469.8010 1390.9325 0.0000 0.0000 1708.5180 -7351.7940 295.5028 -9060.3121 -7338.8760 300.5905 -293.9151 -246.8318 29678.6586 281.3883 356.5231
ENERGY: 900000 2.1711 9.9743 2.6763 0.0000 -10475.1737 1358.4311 0.0000 0.0000 1716.6916 -7385.2294 296.9165 -9101.9210 -7342.6517 301.2305 -607.3778 -573.5129 29674.3381 157.3293 232.6387
ENERGY: 1200000 1.4072 7.8665 4.0476 0.0000 -10540.6069 1395.2084 0.0000 0.0000 1718.9169 -7413.1604 297.3014 -9132.0773 -7340.7809 300.6784 38.2919 96.0252 29073.0382 102.9993 180.5626
ENERGY: 1500000 3.0973 11.0800 3.1521 0.0000 -10512.4683 1455.3486 0.0000 0.0000 1794.4789 -7245.3115 310.3705 -9039.7903 -7344.9608 300.3338 365.1764 398.5899 29936.6708 137.1930 203.3086
TCL: Running FEP window   7: Lambda1 0.3    Lambda2 0.35   [dLambda 0.04999999999999999]
TCL: Setting parameter firsttimestep to 0
TCL: Setting parameter alchLambda to 0.3
Info: NONBONDED TABLE R-SQUARED SPACING: 0.0625
Info: NONBONDED TABLE SIZE: 705 POINTS
TCL: Setting parameter alchLambda2 to 0.35
Info: NONBONDED TABLE R-SQUARED SPACING: 0.0625
Info: NONBONDED TABLE SIZE: 705 POINTS
TCL: Running for 1500000 steps
ETITLE: TS BOND ANGLE DIHED IMPRP ELECT VDW BOUNDARY MISC KINETIC TOTAL TEMP POTENTIAL TOTALAVG TEMPAVG PRESSURE GPRESSURE VOLUME PRESSAVG GPRESSAVG
ENERGY: 0 3.0973 11.0800 3.1521 0.0000 -10512.4685 1455.7160 0.0000 0.0000 1793.6169 -7245.8062 310.2214 -9039.4231 -7245.8062 310.2214 323.3020 405.6340 29936.6708 323.3020 405.6340
ENERGY: 300000 0.8832 9.1437 3.1090 0.0000 -10509.3703 1389.5005 0.0000 0.0000 1771.5521 -7335.1817 306.4051 -9106.7338 -7308.4510 304.5904 -584.2180 -523.6845 30165.6009 -212.1068 -140.9763
ENERGY: 600000 0.6744 12.7033 3.0887 0.0000 -10578.4138 1450.5809 0.0000 0.0000 1721.7161 -7389.6504 297.7855 -9111.3665 -7300.9868 300.9122 163.6992 223.8763 29833.2545 -262.1965 -193.7234
ENERGY: 900000 1.4940 11.3791 3.0875 0.0000 -10552.2282 1455.0048 0.0000 0.0000 1781.1737 -7300.0892 308.0692 -9081.2628 -7311.1648 300.9040 318.2042 382.2266 30089.6933 -213.9643 -147.9817
ENERGY: 1200000 2.4410 11.2895 4.8273 0.0000 -10461.4289 1379.2452 0.0000 0.0000 1724.9073 -7338.7186 298.3375 -9063.6259 -7319.8107 300.1269 -274.7719 -186.2061 29799.8677 -164.4357 -94.8531
ENERGY: 1500000 1.4916 14.7656 3.2219 0.0000 -10407.8766 1357.8108 0.0000 0.0000 1731.6400 -7298.9468 299.5019 -9030.5868 -7306.4251 300.6182 -147.3220 -161.7386 29900.0115 -189.5829 -126.3578
TCL: Running FEP window   8: Lambda1 0.35   Lambda2 0.39999999999999997 [dLambda 0.04999999999999999]
TCL: Setting parameter firsttimestep to 0
TCL: Setting parameter alchLambda to 0.35
Info: NONBONDED TABLE R-SQUARED SPACING: 0.0625
Info: NONBONDED TABLE SIZE: 705 POINTS
TCL: Setting parameter alchLambda2 to 0.39999999999999997
Info: NONBONDED TABLE R-SQUARED SPACING: 0.0625
Info: NONBONDED TABLE SIZE: 705 POINTS
TCL: Running for 1500000 steps
ETITLE: TS BOND ANGLE DIHED IMPRP ELECT VDW BOUNDARY MISC KINETIC TOTAL TEMP POTENTIAL TOTALAVG TEMPAVG PRESSURE GPRESSURE VOLUME PRESSAVG GPRESSAVG
ENERGY: 0 1.4916 14.7655 3.2219 0.0000 -10407.8762 1357.9860 0.0000 0.0000 1730.7722 -7299.6389 299.3518 -9030.4112 -7299.6389 299.3518 -235.1221 -152.2223 29900.0115 -235.1221 -152.2223
ENERGY: 300000 3.3523 11.8342 3.5232 0.0000 -10475.6092 1433.6955 0.0000 0.0000 1772.7276 -7250.4765 306.6084 -9023.2041 -7333.1744 299.7959 246.1084 315.5292 29638.7277 -119.6431 -49.9778
ENERGY: 600000 1.6484 10.8928 3.6180 0.0000 -10481.5718 1469.1092 0.0000 0.0000 1731.5267 -7264.7766 299.4823 -8996.3034 -7338.7266 299.9418 932.2740 928.8371 29377.0397 -3.5501 61.0418
ENERGY: 900000 2.1072 8.3257 2.8612 0.0000 -10561.7622 1430.9071 0.0000 0.0000 1730.2504 -7387.3107 299.2616 -9117.5610 -7339.1264 300.0523 -47.0986 -45.3133 30074.7432 105.3576 161.8072
ENERGY: 1200000 6.6199 12.8213 3.7110 0.0000 -10544.0346 1462.6091 0.0000 0.0000 1715.9055 -7342.3678 296.7805 -9058.2733 -7336.1933 301.1711 303.4558 364.4197 29774.0023 51.0034 113.9421
ENERGY: 1500000 0.7324 11.7360 3.1720 0.0000 -10542.9894 1435.9090 0.0000 0.0000 1708.8349 -7382.6051 295.5576 -9091.4400 -7333.0516 300.7657 211.7510 263.3969 29469.1282 10.3328 72.6586
TCL: Running FEP window   9: Lambda1 0.39999999999999997 Lambda2 0.44999999999999996 [dLambda 0.04999999999999999]
TCL: Setting parameter firsttimestep to 0
TCL: Setting parameter alchLambda to 0.39999999999999997
Info: NONBONDED TABLE R-SQUARED SPACING: 0.0625
Info: NONBONDED TABLE SIZE: 705 POINTS
TCL: Setting parameter alchLambda2 to 0.44999999999999996
Info: NONBONDED TABLE R-SQUARED SPACING: 0.0625
Info: NONBONDED TABLE SIZE: 705 POINTS
TCL: Running for 1500000 steps
ETITLE: TS BOND ANGLE DIHED IMPRP ELECT VDW BOUNDARY MISC KINETIC TOTAL TEMP POTENTIAL TOTALAVG TEMPAVG PRESSURE GPRESSURE VOLUME PRESSAVG GPRESSAVG
ENERGY: 0 0.7324 11.7359 3.1720 0.0000 -10542.9891 1437.8039 0.0000 0.0000 1707.9567 -7381.5881 295.4057 -9089.5447 -7381.5881 295.4057 206.5826 284.8436 29469.1282 206.5826 284.8436
ENERGY: 300000 2.1486 8.6815 4.7759 0.0000 -10547.4659 1454.6696 0.0000 0.0000 1760.2349 -7316.9553 304.4477 -9077.1903 -7343.5386 296.3962 221.0761 273.6327 30158.5440 274.6087 329.0036
ENERGY: 600000 1.5563 7.9119 2.6405 0.0000 -10566.8914 1460.3471 0.0000 0.0000 1743.2540 -7351.1817 301.5107 -9094.4357 -7347.8512 297.3027 145.8367 180.3756 30063.9638 290.0455 336.4671
ENERGY: 900000 3.1484 10.4284 3.1427 0.0000 -10426.1339 1323.1984 0.0000 0.0000 1689.3224 -7396.8936 292.1827 -9086.2160 -7349.5989 298.0454 -1221.9508 -1121.7154 30554.4930 169.5884 225.2406
ENERGY: 1200000 1.0121 9.5953 3.8733 0.0000 -10485.2205 1395.7012 0.0000 0.0000 1747.3383 -7327.7002 302.2171 -9075.0385 -7347.6727 298.5885 -103.4400 -26.7686 29853.1431 188.1206 253.8708
ENERGY: 1500000 4.1728 10.1587 2.3524 0.0000 -10426.5554 1396.8828 0.0000 0.0000 1721.1874 -7291.8011 297.6941 -9012.9886 -7332.6867 299.5806 93.6489 121.9572 29983.3987 153.7942 221.4833
TCL: Running FEP window  10: Lambda1 0.44999999999999996 Lambda2 0.49999999999999994 [dLambda 0.04999999999999999]
TCL: Setting parameter firsttimestep to 0
TCL: Setting parameter alchLambda to 0.44999999999999996
Info: NONBONDED TABLE R-SQUARED SPACING: 0.0625
Info: NONBONDED TABLE SIZE: 705 POINTS
TCL: Setting parameter alchLambda2 to 0.49999999999999994
Info: NONBONDED TABLE R-SQUARED SPACING: 0.0625
Info: NONBONDED TABLE SIZE: 705 POINTS
TCL: Running for 1500000 steps
ETITLE: TS BOND ANGLE DIHED IMPRP ELECT VDW BOUNDARY MISC KINETIC TOTAL TEMP POTENTIAL TOTALAVG TEMPAVG PRESSURE GPRESSURE VOLUME PRESSAVG GPRESSAVG
ENERGY: 0 4.1728 10.1587 2.3524 0.0000 -10426.5547 1397.4449 0.0000 0.0000 1720.3511 -7292.0748 297.5494 -9012.4259 -7292.0748 297.5494 50.0167 135.5235 29983.3987 50.0167 135.5235
ENERGY: 300000 2.5636 7.2772 3.2886 0.0000 -10373.3445 1343.3996 0.0000 0.0000 1742.5119 -7274.3036 301.3823 -9016.8155 -7345.2839 296.7176 -398.3506 -284.9534 29742.4872 -167.6414 -71.9040
ENERGY: 600000 1.9642 10.6622 3.6307 0.0000 -10520.7345 1467.5225 0.0000 0.0000 1755.9912 -7280.9637 303.7137 -9036.9549 -7330.6677 297.8357 380.6511 398.0073 29920.3677 91.2326 146.1081
ENERGY: 900000 2.3780 13.0539 2.3125 0.0000 -10418.3434 1384.8269 0.0000 0.0000 1764.1884 -7251.5837 305.1315 -9015.7721 -7314.5550 299.6404 167.0305 245.8944 29576.0394 -43.6055 24.5046
ENERGY: 1200000 1.2271 15.4892 4.0920 0.0000 -10444.8775 1394.4125 0.0000 0.0000 1728.6524 -7301.0043 298.9852 -9029.6567 -7307.6078 300.2956 150.1902 230.4188 29726.1533 -42.7895 23.3845
ENERGY: 1500000 1.4983 12.1099 2.6108 0.0000 -10455.2303 1456.3705 0.0000 0.0000 1711.3849 -7271.2559 295.9986 -8982.6408 -7302.9046 299.9038 455.5887 459.1622 30011.2430 23.1059 84.2533
TCL: Running FEP window  11: Lambda1 0.49999999999999994 Lambda2 0.5499999999999999 [dLambda 0.04999999999999999]
TCL: Setting parameter firsttimestep to 0
TCL: Setting parameter alchLambda to 0.49999999999999994
Info: NONBONDED TABLE R-SQUARED SPACING: 0.0625
Info: NONBONDED TABLE SIZE: 705 POINTS
TCL: Setting parameter alchLambda2 to 0.5499999999999999
Info: NONBONDED TABLE R-SQUARED SPACING: 0.0625
Info: NONBONDED TABLE SIZE: 705 POINTS
TCL: Running for 1500000 steps
ETITLE: TS BOND ANGLE DIHED IMPRP ELECT VDW BOUNDARY MISC KINETIC TOTAL TEMP POTENTIAL TOTALAVG TEMPAVG PRESSURE GPRESSURE VOLUME PRESSAVG GPRESSAVG
ENERGY: 0 1.4983 12.1099 2.6108 0.0000 -10455.2302 1455.8270 0.0000 0.0000 1710.5287 -7272.6554 295.8506 -8983.1842 -7272.6554 295.8506 387.7991 463.9580 30011.2430 387.7991 463.9580
ENERGY: 300000 3.1478 8.1746 4.0411 0.0000 -10449.7604 1417.0326 0.0000 0.0000 1712.7481 -7304.6162 296.2344 -9017.3643 -7323.7297 298.2988 186.7347 203.1338 29587.8829 251.9517 302.5195
ENERGY: 600000 1.5573 10.9333 5.5780 0.0000 -10564.0431 1472.9164 0.0000 0.0000 1728.5966 -7344.4615 298.9755 -9073.0581 -7333.4505 299.7657 592.5442 625.0285 29451.1082 265.4151 315.3264
ENERGY: 900000 0.4533 14.8099 2.8997 0.0000 -10546.6340 1437.7841 0.0000 0.0000 1707.4259 -7383.2611 295.3139 -9090.6871 -7352.2329 299.0217 179.1497 223.0075 29662.9467 221.8944 275.2057
ENERGY: 1200000 0.6069 15.5522 2.7343 0.0000 -10431.3688 1356.3473 0.0000 0.0000 1780.7880 -7275.3400 308.0025 -9056.1281 -7350.2619 299.4869 -424.8903 -438.6847 29792.1214 73.2868 119.2939
ENERGY: 1500000 1.1204 10.2145 4.3483 0.0000 -10476.9601 1427.3593 0.0000 0.0000 1768.3868 -7265.5307 305.8576 -9033.9176 -7350.0922 299.8440 260.0190 339.2548 29503.5086 82.0423 128.1761
TCL: Running FEP window  12: Lambda1 0.5499999999999999 Lambda2 0.6    [dLambda 0.050000000000000044]
TCL: Setting parameter firsttimestep to 0
TCL: Setting parameter alchLambda to 0.5499999999999999
Info: NONBONDED TABLE R-SQUARED SPACING: 0.0625
Info: NONBONDED TABLE SIZE: 705 POINTS
TCL: Setting parameter alchLambda2 to 0.6
Info: NONBONDED TABLE R-SQUARED SPACING: 0.0625
Info: NONBONDED TABLE SIZE: 705 POINTS
TCL: Running for 1500000 steps
ETITLE: TS BOND ANGLE DIHED IMPRP ELECT VDW BOUNDARY MISC KINETIC TOTAL TEMP POTENTIAL TOTALAVG TEMPAVG PRESSURE GPRESSURE VOLUME PRESSAVG GPRESSAVG
ENERGY: 0 1.1204 10.2145 4.3483 0.0000 -10476.9492 1428.7322 0.0000 0.0000 1767.5843 -7264.9495 305.7188 -9032.5338 -7264.9495 305.7188 285.3490 357.1206 29503.5086 285.3490 357.1206
ENERGY: 300000 1.3039 15.2050 4.4809 0.0000 -10519.4211 1419.0218 0.0000 0.0000 1772.2822 -7307.1272 306.5314 -9079.4095 -7280.6949 304.8506 32.6545 41.9732 30076.3818 145.4714 220.4158
ENERGY: 600000 0.7121 7.2870 2.9323 0.0000 -10350.1894 1322.0968 0.0000 0.0000 1736.6842 -7280.4771 300.3744 -9017.1613 -7283.5878 304.0388 -687.9937 -592.5845 29883.0036 -64.2220 22.1958
ENERGY: 900000 1.1917 11.3800 3.5081 0.0000 -10321.5585 1351.9427 0.0000 0.0000 1712.0612 -7241.4749 296.1156 -8953.5361 -7295.8217 301.4097 -513.0876 -511.6417 30688.9811 -254.6450 -176.0152
ENERGY: 1200000 1.7109 11.9235 4.2550 0.0000 -10592.3894 1497.2799 0.0000 0.0000 1737.3104 -7339.9098 300.4827 -9077.2202 -7313.2939 301.4856 734.5248 821.1319 29632.9226 -80.3983 -3.4951
ENERGY: 1500000 1.9622 11.5539 5.0565 0.0000 -10346.9715 1323.2614 0.0000 0.0000 1742.0828 -7263.0547 301.3081 -9005.1376 -7310.6256 301.0607 -634.1673 -655.1734 30164.5519 -88.8118 -19.6840
TCL: Running FEP window  13: Lambda1 0.6    Lambda2 0.65   [dLambda 0.050000000000000044]
TCL: Setting parameter firsttimestep to 0
TCL: Setting parameter alchLambda to 0.6
Info: NONBONDED TABLE R-SQUARED SPACING: 0.0625
Info: NONBONDED TABLE SIZE: 705 POINTS
TCL: Setting parameter alchLambda2 to 0.65
Info: NONBONDED TABLE R-SQUARED SPACING: 0.0625
Info: NONBONDED TABLE SIZE: 705 POINTS
TCL: Running for 1500000 steps
ETITLE: TS BOND ANGLE DIHED IMPRP ELECT VDW BOUNDARY MISC KINETIC TOTAL TEMP POTENTIAL TOTALAVG TEMPAVG PRESSURE GPRESSURE VOLUME PRESSAVG GPRESSAVG
ENERGY: 0 1.9622 11.5539 5.0565 0.0000 -10346.9178 1323.4935 0.0000 0.0000 1741.2514 -7263.6003 301.1643 -9004.8518 -7263.6003 301.1643 -703.6943 -644.8216 30164.5519 -703.6943 -644.8216
ENERGY: 300000 1.2380 8.0117 3.6451 0.0000 -10383.4961 1326.4492 0.0000 0.0000 1715.5313 -7328.6208 296.7158 -9044.1521 -7285.5021 298.9849 -637.6477 -555.3716 30015.6885 -331.2617 -274.4291
ENERGY: 600000 1.2653 11.6473 4.0471 0.0000 -10429.2759 1394.9675 0.0000 0.0000 1713.2337 -7304.1150 296.3184 -9017.3488 -7285.0656 300.2070 250.9216 312.1051 29486.9252 -204.1128 -145.8754
ENERGY: 900000 1.6803 9.2473 4.3821 0.0000 -10308.7720 1349.5462 0.0000 0.0000 1763.7837 -7180.1324 305.0615 -8943.9161 -7299.9701 300.6462 -156.1347 -144.0095 30211.7167 -180.4506 -123.5644
ENERGY: 1200000 1.5842 10.3701 4.3594 0.0000 -10436.0003 1399.5667 0.0000 0.0000 1736.4745 -7283.6453 300.3381 -9020.1198 -7302.6424 300.4587 160.8058 218.9486 29593.7573 -144.8433 -84.1021
ENERGY: 1500000 2.0180 10.1163 4.1598 0.0000 -10391.8554 1351.2441 0.0000 0.0000 1715.9291 -7308.3881 296.7846 -9024.3171 -7308.2170 299.7970 -846.7181 -713.0146 30312.6885 -147.1176 -75.7475
TCL: Running FEP window  14: Lambda1 0.65   Lambda2 0.7000000000000001 [dLambda 0.050000000000000044]
TCL: Setting parameter firsttimestep to 0
TCL: Setting parameter alchLambda to 0.65
Info: NONBONDED TABLE R-SQUARED SPACING: 0.0625
Info: NONBONDED TABLE SIZE: 705 POINTS
TCL: Setting parameter alchLambda2 to 0.7000000000000001
Info: NONBONDED TABLE R-SQUARED SPACING: 0.0625
Info: NONBONDED TABLE SIZE: 705 POINTS
TCL: Running for 1500000 steps
ETITLE: TS BOND ANGLE DIHED IMPRP ELECT VDW BOUNDARY MISC KINETIC TOTAL TEMP POTENTIAL TOTALAVG TEMPAVG PRESSURE GPRESSURE VOLUME PRESSAVG GPRESSAVG
ENERGY: 0 2.0180 10.1163 4.1598 0.0000 -10391.8481 1351.1890 0.0000 0.0000 1715.0859 -7309.2791 296.6388 -9024.3650 -7309.2791 296.6388 -796.6614 -703.4825 30312.6885 -796.6614 -703.4825
ENERGY: 300000 0.8280 10.3303 2.3688 0.0000 -10644.2952 1548.1712 0.0000 0.0000 1746.1317 -7336.4652 302.0084 -9082.5969 -7338.9984 299.5463 1401.1306 1375.9528 29428.4206 214.4512 254.3344
ENERGY: 600000 1.7909 6.7084 2.7557 0.0000 -10533.7527 1421.2600 0.0000 0.0000 1731.5774 -7369.6604 299.4911 -9101.2377 -7342.9481 301.2464 -215.8266 -160.7534 30040.5818 122.0944 169.3424
ENERGY: 900000 2.6484 7.6484 6.0968 0.0000 -10557.7123 1473.6171 0.0000 0.0000 1715.1217 -7352.5799 296.6450 -9067.7017 -7345.6341 299.2798 526.7096 591.9215 29993.2793 147.6683 205.3787
ENERGY: 1200000 0.3665 8.9546 3.3621 0.0000 -10623.3584 1463.8823 0.0000 0.0000 1745.2966 -7401.4963 301.8640 -9146.7929 -7350.0125 300.5733 473.6559 471.7951 29496.4618 161.0483 216.3272
ENERGY: 1500000 4.7589 8.8519 4.2932 0.0000 -10500.6552 1404.7886 0.0000 0.0000 1697.1998 -7380.7628 293.5452 -9077.9626 -7353.3835 299.8098 -249.0220 -192.3675 30076.1119 108.0771 168.1264
TCL: Running FEP window  15: Lambda1 0.7000000000000001 Lambda2 0.7500000000000001 [dLambda 0.050000000000000044]
TCL: Setting parameter firsttimestep to 0
TCL: Setting parameter alchLambda to 0.7000000000000001
Info: NONBONDED TABLE R-SQUARED SPACING: 0.0625
Info: NONBONDED TABLE SIZE: 705 POINTS
TCL: Setting parameter alchLambda2 to 0.7500000000000001
Info: NONBONDED TABLE R-SQUARED SPACING: 0.0625
Info: NONBONDED TABLE SIZE: 705 POINTS
TCL: Running for 1500000 steps
ETITLE: TS BOND ANGLE DIHED IMPRP ELECT VDW BOUNDARY MISC KINETIC TOTAL TEMP POTENTIAL TOTALAVG TEMPAVG PRESSURE GPRESSURE VOLUME PRESSAVG GPRESSAVG
ENERGY: 0 4.7589 8.8519 4.2932 0.0000 -10500.6626 1404.8208 0.0000 0.0000 1696.2874 -7381.6504 293.3874 -9077.9378 -7381.6504 293.3874 -270.5255 -183.2432 30076.1119 -270.5255 -183.2432
ENERGY: 300000 1.0457 7.8009 2.9550 0.0000 -10486.9787 1363.7900 0.0000 0.0000 1735.3934 -7375.9935 300.1511 -9111.3870 -7341.6158 295.9948 -389.4826 -373.6085 29699.5178 -151.0021 -104.5680
ENERGY: 600000 1.6764 11.3006 2.1832 0.0000 -10460.2118 1394.5290 0.0000 0.0000 1719.4407 -7331.0819 297.3920 -9050.5226 -7336.4623 297.6714 -172.4759 -57.6345 29961.0259 -272.1503 -218.8219
ENERGY: 900000 1.6983 9.3162 3.4456 0.0000 -10573.9412 1446.0280 0.0000 0.0000 1710.3075 -7403.1455 295.8123 -9113.4530 -7345.1581 297.5562 161.7360 265.6330 29604.0084 -115.4209 -55.5764
ENERGY: 1200000 1.3805 9.2234 2.5358 0.0000 -10335.5481 1368.1594 0.0000 0.0000 1739.3689 -7214.8800 300.8387 -8954.2489 -7326.7018 297.3022 -398.3017 -286.3529 30779.2963 -208.1966 -141.8140
ENERGY: 1500000 2.6425 8.8201 3.6640 0.0000 -10368.1766 1395.1656 0.0000 0.0000 1754.7825 -7203.1017 303.5046 -8957.8843 -7310.1533 298.6467 415.3836 421.1472 29741.5405 -191.6116 -137.0901
TCL: Running FEP window  16: Lambda1 0.7500000000000001 Lambda2 0.8000000000000002 [dLambda 0.050000000000000044]
TCL: Setting parameter firsttimestep to 0
TCL: Setting parameter alchLambda to 0.7500000000000001
Info: NONBONDED TABLE R-SQUARED SPACING: 0.0625
Info: NONBONDED TABLE SIZE: 705 POINTS
TCL: Setting parameter alchLambda2 to 0.8000000000000002
Info: NONBONDED TABLE R-SQUARED SPACING: 0.0625
Info: NONBONDED TABLE SIZE: 705 POINTS
TCL: Running for 1500000 steps
ETITLE: TS BOND ANGLE DIHED IMPRP ELECT VDW BOUNDARY MISC KINETIC TOTAL TEMP POTENTIAL TOTALAVG TEMPAVG PRESSURE GPRESSURE VOLUME PRESSAVG GPRESSAVG
ENERGY: 0 2.6425 8.8201 3.6640 0.0000 -10368.2063 1395.8163 0.0000 0.0000 1753.8680 -7203.3953 303.3465 -8957.2634 -7203.3953 303.3465 371.3315 442.4405 29741.5405 371.3315 442.4405
ENERGY: 300000 1.8071 5.8156 3.5357 0.0000 -10417.8268 1308.5719 0.0000 0.0000 1710.6865 -7387.4100 295.8778 -9098.0965 -7334.4111 300.5369 -917.4400 -814.6872 29803.6906 -1.5311 60.3920
ENERGY: 600000 0.8672 15.9036 2.6196 0.0000 -10541.6711 1444.5036 0.0000 0.0000 1756.3323 -7321.4447 303.7727 -9077.7770 -7311.1372 301.8730 366.8272 400.7773 29552.6448 113.1856 170.6014
ENERGY: 900000 1.7120 9.3221 3.1026 0.0000 -10435.9746 1391.1316 0.0000 0.0000 1757.8978 -7272.8085 304.0434 -9030.7063 -7300.9325 302.5533 -267.7063 -163.0833 30391.7767 -43.0472 25.5461
ENERGY: 1200000 3.6887 10.1492 3.4852 0.0000 -10546.0119 1455.9498 0.0000 0.0000 1704.9793 -7367.7597 294.8907 -9072.7390 -7305.3792 302.1952 58.9385 121.6594 30170.9747 33.8235 108.5218
ENERGY: 1500000 2.7310 9.8017 3.4760 0.0000 -10609.9991 1516.0563 0.0000 0.0000 1746.1706 -7331.7635 302.0151 -9077.9341 -7304.4778 302.5327 741.6835 847.3550 29713.8690 35.0975 108.0639
TCL: Running FEP window  17: Lambda1 0.8000000000000002 Lambda2 0.8500000000000002 [dLambda 0.050000000000000044]
TCL: Setting parameter firsttimestep to 0
TCL: Setting parameter alchLambda to 0.8000000000000002
Info: NONBONDED TABLE R-SQUARED SPACING: 0.0625
Info: NONBONDED TABLE SIZE: 705 POINTS
TCL: Setting parameter alchLambda2 to 0.8500000000000002
Info: NONBONDED TABLE R-SQUARED SPACING: 0.0625
Info: NONBONDED TABLE SIZE: 705 POINTS
TCL: Running for 1500000 steps
ETITLE: TS BOND ANGLE DIHED IMPRP ELECT VDW BOUNDARY MISC KINETIC TOTAL TEMP POTENTIAL TOTALAVG TEMPAVG PRESSURE GPRESSURE VOLUME PRESSAVG GPRESSAVG
ENERGY: 0 2.7310 9.8017 3.4760 0.0000 -10610.0518 1515.8510 0.0000 0.0000 1745.2793 -7332.9127 301.8610 -9078.1921 -7332.9127 301.8610 763.3905 855.9836 29713.8690 763.3905 855.9836
ENERGY: 300000 4.5157 14.9441 4.2676 0.0000 -10550.5509 1456.7094 0.0000 0.0000 1720.7343 -7349.3798 297.6157 -9070.1141 -7315.0975 301.6820 238.2168 235.9385 29700.5392 511.6333 568.8665
ENERGY: 600000 3.0280 9.9675 2.7146 0.0000 -10371.0643 1322.1017 0.0000 0.0000 1745.0414 -7288.2110 301.8198 -9033.2524 -7302.4455 301.4760 -713.3823 -629.3893 30484.9535 49.5352 109.8457
ENERGY: 900000 1.3875 13.4853 4.3261 0.0000 -10546.4496 1415.0678 0.0000 0.0000 1690.7450 -7421.4377 292.4288 -9112.1828 -7309.0723 300.5644 -114.6256 -54.8487 29846.1284 -75.1181 -11.9881
ENERGY: 1200000 3.5942 11.6551 3.2415 0.0000 -10336.4429 1279.5011 0.0000 0.0000 1762.7019 -7275.7492 304.8744 -9038.4511 -7308.7304 301.4869 -1269.6751 -1164.8909 30243.7305 -185.7594 -115.0041
ENERGY: 1500000 1.9149 9.5416 4.5293 0.0000 -10590.9229 1415.0012 0.0000 0.0000 1709.0704 -7450.8656 295.5983 -9159.9360 -7315.3476 301.5386 -261.7794 -178.0818 29703.9213 -175.5980 -105.5657
TCL: Running FEP window  18: Lambda1 0.8500000000000002 Lambda2 0.9000000000000002 [dLambda 0.050000000000000044]
TCL: Setting parameter firsttimestep to 0
TCL: Setting parameter alchLambda to 0.8500000000000002
Info: NONBONDED TABLE R-SQUARED SPACING: 0.0625
Info: NONBONDED TABLE SIZE: 705 POINTS
TCL: Setting parameter alchLambda2 to 0.9000000000000002
Info: NONBONDED TABLE R-SQUARED SPACING: 0.0625
Info: NONBONDED TABLE SIZE: 705 POINTS
TCL: Running for 1500000 steps
ETITLE: TS BOND ANGLE DIHED IMPRP ELECT VDW BOUNDARY MISC KINETIC TOTAL TEMP POTENTIAL TOTALAVG TEMPAVG PRESSURE GPRESSURE VOLUME PRESSAVG GPRESSAVG
ENERGY: 0 1.9149 9.5416 4.5293 0.0000 -10590.9139 1414.3534 0.0000 0.0000 1708.2595 -7452.3153 295.4581 -9160.5748 -7452.3153 295.4581 -250.0992 -176.4727 29703.9213 -250.0992 -176.4727
ENERGY: 300000 0.8155 8.8826 3.4421 0.0000 -10341.9996 1318.4875 0.0000 0.0000 1708.5501 -7301.8217 295.5083 -9010.3719 -7356.6990 300.9606 -589.7018 -575.5473 30243.1451 218.5399 273.0176
ENERGY: 600000 0.4205 10.9379 3.6409 0.0000 -10582.4160 1442.5976 0.0000 0.0000 1733.0542 -7391.7649 299.7465 -9124.8191 -7363.0516 301.4717 228.4944 294.6577 29525.6260 87.3222 148.7317
ENERGY: 900000 1.8481 13.4110 8.0230 0.0000 -10400.4112 1343.2856 0.0000 0.0000 1702.8190 -7331.0245 294.5171 -9033.8436 -7361.5279 301.2830 -583.2616 -516.6073 30155.8530 -74.6359 -22.2809
ENERGY: 1200000 3.6317 11.0623 2.8883 0.0000 -10448.0908 1403.3880 0.0000 0.0000 1748.1362 -7278.9844 302.3551 -9027.1206 -7352.7086 301.5059 -192.9322 -138.6427 30346.0719 -42.8032 7.1108
ENERGY: 1500000 2.2573 12.6554 5.2772 0.0000 -10584.7606 1466.5030 0.0000 0.0000 1704.2045 -7393.8633 294.7567 -9098.0678 -7350.7227 301.2526 157.9151 259.4808 29681.2836 6.0453 61.9651
TCL: Running FEP window  19: Lambda1 0.9000000000000002 Lambda2 0.9500000000000003 [dLambda 0.050000000000000044]
TCL: Setting parameter firsttimestep to 0
TCL: Setting parameter alchLambda to 0.9000000000000002
Info: NONBONDED TABLE R-SQUARED SPACING: 0.0625
Info: NONBONDED TABLE SIZE: 705 POINTS
TCL: Setting parameter alchLambda2 to 0.9500000000000003
Info: NONBONDED TABLE R-SQUARED SPACING: 0.0625
Info: NONBONDED TABLE SIZE: 705 POINTS
TCL: Running for 1500000 steps
ETITLE: TS BOND ANGLE DIHED IMPRP ELECT VDW BOUNDARY MISC KINETIC TOTAL TEMP POTENTIAL TOTALAVG TEMPAVG PRESSURE GPRESSURE VOLUME PRESSAVG GPRESSAVG
ENERGY: 0 2.2573 12.6554 5.2772 0.0000 -10584.7423 1466.4849 0.0000 0.0000 1703.3485 -7394.7191 294.6087 -9098.0676 -7394.7191 294.6087 176.4997 272.5667 29681.2836 176.4997 272.5667
ENERGY: 300000 1.2439 5.1976 4.2720 0.0000 -10556.7668 1395.1751 0.0000 0.0000 1745.3075 -7405.5706 301.8659 -9150.8781 -7360.7515 299.3914 -116.4691 -76.1905 29755.2697 22.8606 95.9606
ENERGY: 600000 1.8850 7.8697 3.3154 0.0000 -10525.8992 1385.4493 0.0000 0.0000 1708.6728 -7418.7070 295.5296 -9127.3798 -7357.4301 299.0684 -405.6432 -217.9393 29644.1297 -81.7570 18.9476
ENERGY: 900000 3.3130 9.9744 3.4669 0.0000 -10463.9587 1416.1901 0.0000 0.0000 1758.2465 -7272.7678 304.1038 -9031.0143 -7344.7189 298.8105 89.0027 196.4066 29907.6410 -111.0729 -24.6150
ENERGY: 1200000 1.7283 9.1855 3.3991 0.0000 -10442.6402 1387.9297 0.0000 0.0000 1754.0695 -7286.3281 303.3813 -9040.3976 -7336.5277 299.4452 -232.1833 -138.5616 30269.5979 -125.9540 -38.8087
ENERGY: 1500000 2.2715 8.9752 4.7682 0.0000 -10432.7638 1414.8684 0.0000 0.0000 1798.0378 -7203.8428 310.9860 -9001.8806 -7330.8105 299.8973 97.1265 135.4870 30295.9054 -106.3943 -29.4958
TCL: Running FEP window  20: Lambda1 0.9500000000000003 Lambda2 1.0    [dLambda 0.04999999999999971]
TCL: Setting parameter firsttimestep to 0
TCL: Setting parameter alchLambda to 0.9500000000000003
Info: NONBONDED TABLE R-SQUARED SPACING: 0.0625
Info: NONBONDED TABLE SIZE: 705 POINTS
TCL: Setting parameter alchLambda2 to 1.0
Info: NONBONDED TABLE R-SQUARED SPACING: 0.0625
Info: NONBONDED TABLE SIZE: 705 POINTS
TCL: Running for 1500000 steps
ETITLE: TS BOND ANGLE DIHED IMPRP ELECT VDW BOUNDARY MISC KINETIC TOTAL TEMP POTENTIAL TOTALAVG TEMPAVG PRESSURE GPRESSURE VOLUME PRESSAVG GPRESSAVG
ENERGY: 0 2.2715 8.9752 4.7682 0.0000 -10432.7318 1414.9127 0.0000 0.0000 1797.1789 -7204.6254 310.8375 -9001.8044 -7204.6254 310.8375 61.0832 148.4109 30295.9054 61.0832 148.4109
ENERGY: 300000 1.1283 10.1270 3.9246 0.0000 -10449.9045 1326.2549 0.0000 0.0000 1762.2752 -7346.1944 304.8006 -9108.4696 -7278.2651 304.6601 -682.3008 -581.4950 29672.1065 251.0672 312.2416
ENERGY: 600000 0.8294 13.0671 3.7210 0.0000 -10407.1138 1365.5585 0.0000 0.0000 1711.1641 -7312.7737 295.9605 -9023.9378 -7321.1710 299.9771 -462.9554 -388.4351 30308.5267 45.9216 100.3627
ENERGY: 900000 1.0053 10.8887 2.7337 0.0000 -10342.8039 1332.8560 0.0000 0.0000 1755.8097 -7239.5105 303.6823 -8995.3202 -7312.5187 299.0321 -309.0164 -268.7017 29955.1943 -80.3404 -16.5510
ENERGY: 1200000 0.4818 13.8160 3.2723 0.0000 -10432.0633 1421.7762 0.0000 0.0000 1811.3762 -7181.3408 313.2930 -8992.7170 -7305.5595 300.4116 277.8201 429.7014 30156.3113 -133.0436 -60.1457
ENERGY: 1500000 0.4560 8.6557 4.0626 0.0000 -10587.6618 1495.4486 0.0000 0.0000 1734.9448 -7344.0940 300.0735 -9079.0389 -7311.2788 299.6958 694.9329 751.8675 29716.6659 -36.2848 37.3925
TCL: Exiting due to exit command.
