Info: SIMULATION PARAMETERS:
Info: TIMESTEP               2
Info: NUMBER OF STEPS        0
Info: STEPS PER CYCLE        10
Info: PERIODIC CELL BASIS 1  36.1245 0 0
Info: PERIODIC CELL BASIS 2  0 29.3393 0
Info: PERIODIC CELL BASIS 3  0 0 28.9827
Info: PERIODIC CELL CENTER   0 0 0
Info: WRAPPING WATERS AROUND PERIODIC BOUNDARIES ON OUTPUT.
Info: WRAPPING ALL CLUSTERS AROUND PERIODIC BOUNDARIES ON OUTPUT.
Info: FIRST LDB TIMESTEP     50
Info: LAST LDB TIMESTEP     -1
Info: HOM BACKGROUND SCALING 1
Info: PME BACKGROUND SCALING 1
Info: MIN ATOMS PER PATCH    40
Info: EMPTY PATCH LOAD       40 ATOMS
Info: VELOCITY FILE          mobley_7860938_equil.vel
Info: CENTER OF MASS MOVING INITIALLY? NO
Info: DIELECTRIC             1
Info: EXCLUDE                SCALED ONE-FOUR
Info: 1-4 ELECTROSTATICS SCALED BY 0.833333
Info: MODIFIED 1-4 VDW PARAMETERS WILL BE USED
Info: DCD FILENAME           mobley_7860938_prod.dcd
Info: DCD FREQUENCY          100000
Info: DCD FIRST STEP         100000
Info: DCD FILE WILL CONTAIN UNIT CELL DATA
Info: XST FILENAME           mobley_7860938_prod.xst
Info: XST FREQUENCY          100000
Info: NO VELOCITY DCD OUTPUT
Info: NO FORCE DCD OUTPUT
Info: OUTPUT FILENAME        mobley_7860938_prod
Info: BINARY OUTPUT FILES WILL BE USED
Info: RESTART FILENAME       mobley_7860938_prod.restart
Info: RESTART FREQUENCY      100000
Info: BINARY RESTART FILES WILL BE USED
Info: CUTOFF                 9
Info: PAIRLIST DISTANCE      11
Info: PAIRLIST SHRINK RATE   0.01
Info: PAIRLIST GROW RATE     0.01
Info: PAIRLIST TRIGGER       0.3
Info: PAIRLISTS PER CYCLE    2
Info: PAIRLISTS ENABLED
Info: MARGIN                 2
Info: HYDROGEN GROUP CUTOFF  2.5
Info: PATCH DIMENSION        15.5
Info: ENERGY OUTPUT STEPS    100000
Info: ENERGY EVALUATION STEPS    100000
Info: OUTPUT ENERGY PRECISION 4
Info: CROSSTERM ENERGY INCLUDED IN DIHEDRAL
Info: TIMING OUTPUT STEPS    1000000
Info: PRESSURE OUTPUT STEPS  100000
Info: ALCHEMICAL FEP ON
Info: FEP CURRENT LAMBDA VALUE     0
Info: FEP COMPARISON LAMBDA VALUE  0.05
Info: FEP INTRA-ALCHEMICAL NON-BONDED INTERACTIONS WILL BE RETAINED
Info: FEP INTRA-ALCHEMICAL BONDED INTERACTIONS WILL BE RETAINED
Info: FEP VDW SHIFTING COEFFICIENT 5
Info: FEP ELEC. ACTIVE FOR ANNIHILATED PARTICLES BETWEEN LAMBDA = 0 AND LAMBDA = 0.5
Info: FEP ELEC. ACTIVE FOR EXNIHILATED PARTICLES BETWEEN LAMBDA = 0.5 AND LAMBDA = 1
Info: FEP VDW ACTIVE FOR ANNIHILATED PARTICLES BETWEEN LAMBDA = 0 AND LAMBDA = 1
Info: FEP VDW ACTIVE FOR EXNIHILATED PARTICLES BETWEEN LAMBDA = 0 AND LAMBDA = 1
Info: FEP BOND ACTIVE FOR ANNIHILATED PARTICLES BETWEEN LAMBDA = 1 AND LAMBDA = 1
Info: FEP BOND ACTIVE FOR EXNIHILATED PARTICLES BETWEEN LAMBDA = 0 AND LAMBDA = 0
Info: LANGEVIN DYNAMICS ACTIVE
Info: LANGEVIN TEMPERATURE   300
Info: LANGEVIN USING BBK INTEGRATOR
Info: LANGEVIN DAMPING COEFFICIENT IS 1 INVERSE PS
Info: LANGEVIN DYNAMICS APPLIED TO HYDROGENS
Info: LANGEVIN PISTON PRESSURE CONTROL ACTIVE
Info:        TARGET PRESSURE IS 1.01325 BAR
Info:     OSCILLATION PERIOD IS 50 FS
Info:             DECAY TIME IS 25 FS
Info:     PISTON TEMPERATURE IS 300 K
Info:       PRESSURE CONTROL IS GROUP-BASED
Info:    INITIAL STRAIN RATE IS -0.000188708 -0.000188708 -0.000188708
Info:       CELL FLUCTUATION IS ISOTROPIC
Info: PARTICLE MESH EWALD (PME) ACTIVE
Info: PME TOLERANCE               1e-06
Info: PME EWALD COEFFICIENT       0.348832
Info: PME INTERPOLATION ORDER     4
Info: PME GRID DIMENSIONS         40 32 32
Info: PME MAXIMUM GRID SPACING    1
Info: PME CALCULATION WILL BE PERFORMED ON GPU
Info: FULL ELECTROSTATIC EVALUATION FREQUENCY      2
Info: USING VERLET I (r-RESPA) MTS SCHEME.
Info: C1 SPLITTING OF LONG RANGE ELECTROSTATICS
Info: PLACING ATOMS IN PATCHES BY HYDROGEN GROUPS
Info: RIGID BONDS TO HYDROGEN : ALL
Info:         ERROR TOLERANCE : 1e-08
Info:          MAX ITERATIONS : 100
Info: RIGID WATER USING SETTLE ALGORITHM
Info: RANDOM NUMBER SEED     1744082071
Info: USE HYDROGEN BONDS?    NO
Info: Using AMBER format force field!
Info: AMBER PARM FILE        mobley_7860938.prmtop
Info: COORDINATE PDB         mobley_7860938.pdb
Info: Exclusions will be read from PARM file!
Info: SCNB (VDW SCALING)     2
Info: USING ARITHMETIC MEAN TO COMBINE L-J SIGMA PARAMETERS
Info: BINARY COORDINATES     mobley_7860938_equil.coor
Info: SUMMARY OF PARAMETERS:
Info: 7 BONDS
Info: 9 ANGLES
Info:   9 HARMONIC
Info:   0 COSINE-BASED
Info: 8 DIHEDRAL
Info: 0 IMPROPER
Info: 0 CROSSTERM
Info: 0 VDW
Info: 28 VDW_PAIRS
Info: 0 NBTHOLE_PAIRS
Info: To read alchdata from file: mobley_7860938.pdb
Info: To read alchflag data from column: 5
Info: STRUCTURE SUMMARY:
Info: 2998 ATOMS
Info: 2997 BONDS
Info: 51 ANGLES
Info: 72 DIHEDRALS
Info: 0 IMPROPERS
Info: 0 CROSSTERMS
Info: 3114 EXCLUSIONS
Info: 2989 RIGID BONDS
Info: ALCH: 0 ATOMS TO DISAPPEAR IN FINAL STATE
Info: ALCH: 28 ATOMS TO APPEAR IN FINAL STATE
Info: 6005 DEGREES OF FREEDOM
Info: 999 HYDROGEN GROUPS
Info: 4 ATOMS IN LARGEST HYDROGEN GROUP
Info: 999 MIGRATION GROUPS
Info: 4 ATOMS IN LARGEST MIGRATION GROUP
Info: TOTAL MASS = 17965.1 amu
Info: TOTAL CHARGE = 0.000199988 e
Info: MASS DENSITY = 0.971176 g/cm^3
Info: ATOM DENSITY = 0.0975981 atoms/A^3
Info: ADDED 0 IMPLICIT EXCLUSIONS
Info: NONBONDED TABLE R-SQUARED SPACING: 0.0625
Info: NONBONDED TABLE SIZE: 705 POINTS
Info: REMOVING COM VELOCITY 0.255144 -0.0200878 0.0399338
Info: Use 3D box decompostion in PME FFT.
Info: Updated CUDA force table with 4096 elements.
Info: Updated CUDA LJ table with 7 x 7 elements.
Info: Found 31 unique exclusion lists needing 116 bytes
TCL: Running for 1500000 steps
ETITLE: TS BOND ANGLE DIHED IMPRP ELECT VDW BOUNDARY MISC KINETIC TOTAL TEMP POTENTIAL TOTALAVG TEMPAVG PRESSURE GPRESSURE VOLUME PRESSAVG GPRESSAVG
ENERGY: 0 1.6512 18.7279 5.1549 0.0000 -10848.1851 1449.5607 0.0000 0.0000 1762.4608 -7610.6295 295.3907 -9373.0903 -7610.6295 295.3907 -188.4462 -115.3820 30717.8258 -188.4462 -115.3820
ENERGY: 300000 1.7335 14.8101 3.6564 0.0000 -10885.6865 1453.4159 0.0000 0.0000 1769.0927 -7642.9780 296.5022 -9412.0707 -7576.0802 298.7891 -342.0178 -243.8218 30444.3703 -174.3717 -99.5285
ENERGY: 600000 2.5049 16.5560 2.3760 0.0000 -10799.9441 1442.4152 0.0000 0.0000 1793.6617 -7542.4304 300.6200 -9336.0921 -7544.1631 301.5784 -275.0141 -152.1010 30824.0471 -226.6986 -146.1196
ENERGY: 900000 1.8362 13.7816 2.6973 0.0000 -10651.0578 1374.2369 0.0000 0.0000 1846.9028 -7411.6030 309.5433 -9258.5058 -7542.8682 302.5396 -84.9357 -57.2150 30363.1222 -238.9270 -173.9705
ENERGY: 1200000 3.3348 12.5757 3.1295 0.0000 -10885.6560 1462.6775 0.0000 0.0000 1817.5887 -7586.3498 304.6302 -9403.9385 -7544.9171 302.7657 -211.6405 -101.2441 30548.9867 -208.6000 -140.6314
ENERGY: 1500000 1.1772 14.6457 2.6338 0.0000 -10840.5326 1451.8392 0.0000 0.0000 1772.5604 -7597.6763 297.0834 -9370.2367 -7553.1926 302.0688 -124.0311 -71.4966 30750.2000 -114.7159 -48.7051
TCL: Running FEP window   2: Lambda1 0.05   Lambda2 0.1    [dLambda 0.05  ]
TCL: Setting parameter firsttimestep to 0
TCL: Setting parameter alchLambda to 0.05
Info: NONBONDED TABLE R-SQUARED SPACING: 0.0625
Info: NONBONDED TABLE SIZE: 705 POINTS
TCL: Setting parameter alchLambda2 to 0.1
Info: NONBONDED TABLE R-SQUARED SPACING: 0.0625
Info: NONBONDED TABLE SIZE: 705 POINTS
TCL: Running for 1500000 steps
ETITLE: TS BOND ANGLE DIHED IMPRP ELECT VDW BOUNDARY MISC KINETIC TOTAL TEMP POTENTIAL TOTALAVG TEMPAVG PRESSURE GPRESSURE VOLUME PRESSAVG GPRESSAVG
ENERGY: 0 1.1772 14.6457 2.6338 0.0000 -10840.5319 1456.2094 0.0000 0.0000 1771.6628 -7594.2029 296.9330 -9365.8657 -7594.2029 296.9330 -145.1239 -61.5151 30750.2000 -145.1239 -61.5151
ENERGY: 300000 2.0932 10.2409 2.7111 0.0000 -10787.9627 1444.2144 0.0000 0.0000 1743.1431 -7585.5600 292.1530 -9328.7031 -7560.0671 298.0999 188.6625 162.9180 30315.0265 39.0632 124.0447
ENERGY: 600000 0.8512 13.1972 4.2484 0.0000 -10734.9173 1395.4227 0.0000 0.0000 1808.2316 -7512.9661 303.0620 -9321.1977 -7554.3373 299.9473 -355.9255 -296.0194 30570.1991 -31.7827 36.6491
ENERGY: 900000 3.2071 11.6611 5.9639 0.0000 -10794.6836 1403.3512 0.0000 0.0000 1750.7865 -7619.7137 293.4341 -9370.5002 -7548.4428 299.5967 -672.6883 -668.7545 30788.5888 -193.3197 -139.2601
ENERGY: 1200000 3.7400 15.4761 5.7109 0.0000 -10914.6661 1473.6205 0.0000 0.0000 1787.7977 -7628.3210 299.6372 -9416.1187 -7555.9981 299.3794 -264.7240 -129.8166 30403.7592 -194.0834 -133.0386
ENERGY: 1500000 2.8552 8.9786 1.8351 0.0000 -10968.7765 1563.2457 0.0000 0.0000 1758.5950 -7633.2669 294.7428 -9391.8618 -7547.9906 299.3235 580.7930 634.3279 30617.9512 -160.2903 -105.0823
TCL: Running FEP window   3: Lambda1 0.1    Lambda2 0.15000000000000002 [dLambda 0.05000000000000002]
TCL: Setting parameter firsttimestep to 0
TCL: Setting parameter alchLambda to 0.1
Info: NONBONDED TABLE R-SQUARED SPACING: 0.0625
Info: NONBONDED TABLE SIZE: 705 POINTS
TCL: Setting parameter alchLambda2 to 0.15000000000000002
Info: NONBONDED TABLE R-SQUARED SPACING: 0.0625
Info: NONBONDED TABLE SIZE: 705 POINTS
TCL: Running for 1500000 steps
ETITLE: TS BOND ANGLE DIHED IMPRP ELECT VDW BOUNDARY MISC KINETIC TOTAL TEMP POTENTIAL TOTALAVG TEMPAVG PRESSURE GPRESSURE VOLUME PRESSAVG GPRESSAVG
ENERGY: 0 2.8552 8.9786 1.8351 0.0000 -10968.7764 1565.1006 0.0000 0.0000 1757.7464 -7632.2604 294.6006 -9390.0068 -7632.2604 294.6006 569.2713 644.5433 30617.9512 569.2713 644.5433
ENERGY: 300000 1.3427 11.7723 3.1405 0.0000 -10892.4797 1512.5575 0.0000 0.0000 1811.7108 -7551.9559 303.6451 -9363.6667 -7583.4706 297.6804 315.5885 384.6180 30818.2063 140.9125 205.7151
ENERGY: 600000 2.0420 13.6631 4.5647 0.0000 -10821.7326 1481.8543 0.0000 0.0000 1773.8055 -7545.8030 297.2921 -9319.6085 -7562.6969 298.2713 228.8282 249.0734 30974.1895 40.0741 110.7453
ENERGY: 900000 3.2362 13.9810 3.7702 0.0000 -10791.3421 1478.6446 0.0000 0.0000 1766.6286 -7525.0815 296.0892 -9291.7101 -7553.9923 297.8165 116.6481 159.8124 30859.4466 0.9498 62.6649
ENERGY: 1200000 1.4169 13.6015 3.6533 0.0000 -10862.9917 1485.9658 0.0000 0.0000 1771.4420 -7586.9121 296.8960 -9358.3541 -7557.1030 298.2005 232.3769 281.1714 30436.9479 41.8376 109.8866
ENERGY: 1500000 2.0415 16.4655 1.8128 0.0000 -10770.9052 1418.3688 0.0000 0.0000 1758.7485 -7573.4680 294.7685 -9332.2165 -7555.4746 298.5418 -367.9782 -252.4899 30636.5486 68.2314 138.3870
TCL: Running FEP window   4: Lambda1 0.15000000000000002 Lambda2 0.2    [dLambda 0.04999999999999999]
TCL: Setting parameter firsttimestep to 0
TCL: Setting parameter alchLambda to 0.15000000000000002
Info: NONBONDED TABLE R-SQUARED SPACING: 0.0625
Info: NONBONDED TABLE SIZE: 705 POINTS
TCL: Setting parameter alchLambda2 to 0.2
Info: NONBONDED TABLE R-SQUARED SPACING: 0.0625
Info: NONBONDED TABLE SIZE: 705 POINTS
TCL: Running for 1500000 steps
ETITLE: TS BOND ANGLE DIHED IMPRP ELECT VDW BOUNDARY MISC KINETIC TOTAL TEMP POTENTIAL TOTALAVG TEMPAVG PRESSURE GPRESSURE VOLUME PRESSAVG GPRESSAVG
ENERGY: 0 2.0415 16.4655 1.8128 0.0000 -10770.9046 1420.7035 0.0000 0.0000 1757.8777 -7572.0036 294.6226 -9329.8812 -7572.0036 294.6226 -328.8411 -238.8013 30636.5486 -328.8411 -238.8013
ENERGY: 300000 2.1001 14.8232 2.1063 0.0000 -10802.8303 1460.6259 0.0000 0.0000 1754.9985 -7568.1762 294.1400 -9323.1748 -7542.6482 296.3451 9.4559 41.3743 30722.2599 -16.1504 39.0123
ENERGY: 600000 4.4788 17.6606 3.8815 0.0000 -10732.7229 1411.8053 0.0000 0.0000 1743.0260 -7551.8708 292.1334 -9294.8968 -7535.4738 297.2439 -570.4655 -534.1377 31072.5398 -146.2244 -86.9843
ENERGY: 900000 1.2225 10.8543 4.0753 0.0000 -10726.7591 1455.0051 0.0000 0.0000 1800.3619 -7455.2400 301.7430 -9255.6019 -7523.2921 298.7349 179.7172 248.4631 30714.7913 -161.3544 -110.5157
ENERGY: 1200000 2.3823 18.7235 3.1886 0.0000 -10713.5040 1411.3918 0.0000 0.0000 1864.6214 -7413.1963 312.5130 -9277.8178 -7511.6519 300.0207 -198.2762 -98.4999 30725.9021 -233.1883 -174.1944
ENERGY: 1500000 1.9924 13.4753 2.9012 0.0000 -10857.3022 1533.8575 0.0000 0.0000 1810.9974 -7494.0784 303.5255 -9305.0758 -7507.9908 300.9829 525.7022 555.2781 31099.7419 -176.9933 -123.6440
TCL: Running FEP window   5: Lambda1 0.2    Lambda2 0.25   [dLambda 0.04999999999999999]
TCL: Setting parameter firsttimestep to 0
TCL: Setting parameter alchLambda to 0.2
Info: NONBONDED TABLE R-SQUARED SPACING: 0.0625
Info: NONBONDED TABLE SIZE: 705 POINTS
TCL: Setting parameter alchLambda2 to 0.25
Info: NONBONDED TABLE R-SQUARED SPACING: 0.0625
Info: NONBONDED TABLE SIZE: 705 POINTS
TCL: Running for 1500000 steps
ETITLE: TS BOND ANGLE DIHED IMPRP ELECT VDW BOUNDARY MISC KINETIC TOTAL TEMP POTENTIAL TOTALAVG TEMPAVG PRESSURE GPRESSURE VOLUME PRESSAVG GPRESSAVG
ENERGY: 0 1.9924 13.4753 2.9012 0.0000 -10857.3019 1535.6539 0.0000 0.0000 1810.1623 -7493.1168 303.3856 -9303.2791 -7493.1168 303.3856 493.5625 567.4074 31099.7419 493.5625 567.4074
ENERGY: 300000 1.5941 6.8381 4.7792 0.0000 -10750.6759 1451.1731 0.0000 0.0000 1821.8527 -7464.4387 305.3449 -9286.2914 -7519.3420 301.3264 27.7022 76.5178 30781.9825 -155.8075 -75.4668
ENERGY: 600000 1.0386 14.0418 3.3423 0.0000 -10844.1478 1499.3838 0.0000 0.0000 1824.1097 -7502.2316 305.7232 -9326.3413 -7516.9950 302.0300 234.8313 262.9709 30816.6911 -29.2331 37.7709
ENERGY: 900000 3.0117 14.5047 3.0811 0.0000 -10906.7299 1524.2662 0.0000 0.0000 1770.3003 -7591.5659 296.7046 -9361.8662 -7543.5453 300.9636 543.0974 574.3681 30539.7880 134.3516 191.1392
ENERGY: 1200000 3.4564 11.7398 2.9248 0.0000 -10888.6523 1492.1101 0.0000 0.0000 1788.4491 -7589.9722 299.7464 -9378.4212 -7536.1359 300.8780 215.3794 220.6618 30439.5271 140.4466 187.2562
ENERGY: 1500000 4.1148 10.6872 2.4111 0.0000 -10831.6832 1478.1356 0.0000 0.0000 1863.7452 -7472.5892 312.3661 -9336.3345 -7519.2014 301.9447 -61.4350 0.8591 30899.5717 60.7578 109.3500
TCL: Running FEP window   6: Lambda1 0.25   Lambda2 0.3    [dLambda 0.04999999999999999]
TCL: Setting parameter firsttimestep to 0
TCL: Setting parameter alchLambda to 0.25
Info: NONBONDED TABLE R-SQUARED SPACING: 0.0625
Info: NONBONDED TABLE SIZE: 705 POINTS
TCL: Setting parameter alchLambda2 to 0.3
Info: NONBONDED TABLE R-SQUARED SPACING: 0.0625
Info: NONBONDED TABLE SIZE: 705 POINTS
TCL: Running for 1500000 steps
ETITLE: TS BOND ANGLE DIHED IMPRP ELECT VDW BOUNDARY MISC KINETIC TOTAL TEMP POTENTIAL TOTALAVG TEMPAVG PRESSURE GPRESSURE VOLUME PRESSAVG GPRESSAVG
ENERGY: 0 4.1148 10.6872 2.4111 0.0000 -10831.6824 1478.9519 0.0000 0.0000 1862.8271 -7472.6903 312.2122 -9335.5175 -7472.6903 312.2122 -60.0072 11.5610 30899.5717 -60.0072 11.5610
ENERGY: 300000 3.0786 19.7022 3.1709 0.0000 -10831.3613 1491.2520 0.0000 0.0000 1804.4536 -7509.7040 302.4288 -9314.1576 -7502.3019 303.9867 216.1303 254.7280 30673.4550 115.3330 179.3972
ENERGY: 600000 3.5275 14.6549 5.2792 0.0000 -10796.5489 1435.0873 0.0000 0.0000 1818.0708 -7519.9291 304.7110 -9338.0000 -7501.0855 304.1248 -12.5924 57.3326 30271.3888 -121.6551 -43.5735
ENERGY: 900000 4.6362 11.0444 2.2998 0.0000 -10781.7203 1430.7714 0.0000 0.0000 1779.6213 -7553.3473 298.2668 -9332.9686 -7503.2766 303.4820 -165.4260 -74.2194 30453.9761 -185.7825 -121.4454
ENERGY: 1200000 1.4187 14.9930 4.0469 0.0000 -10820.0779 1517.9186 0.0000 0.0000 1791.8024 -7489.8982 300.3084 -9281.7006 -7512.5141 301.6719 483.8914 527.8549 30993.4884 -95.2307 -29.7990
ENERGY: 1500000 2.5373 12.7920 4.7618 0.0000 -10824.4674 1457.6381 0.0000 0.0000 1836.4196 -7510.3186 307.7863 -9346.7382 -7514.1667 302.1428 21.4052 72.5643 30578.7833 -76.8847 -11.3392
TCL: Running FEP window   7: Lambda1 0.3    Lambda2 0.35   [dLambda 0.04999999999999999]
TCL: Setting parameter firsttimestep to 0
TCL: Setting parameter alchLambda to 0.3
Info: NONBONDED TABLE R-SQUARED SPACING: 0.0625
Info: NONBONDED TABLE SIZE: 705 POINTS
TCL: Setting parameter alchLambda2 to 0.35
Info: NONBONDED TABLE R-SQUARED SPACING: 0.0625
Info: NONBONDED TABLE SIZE: 705 POINTS
TCL: Running for 1500000 steps
ETITLE: TS BOND ANGLE DIHED IMPRP ELECT VDW BOUNDARY MISC KINETIC TOTAL TEMP POTENTIAL TOTALAVG TEMPAVG PRESSURE GPRESSURE VOLUME PRESSAVG GPRESSAVG
ENERGY: 0 2.5373 12.7920 4.7618 0.0000 -10824.4672 1458.2628 0.0000 0.0000 1835.5071 -7510.6062 307.6334 -9346.1133 -7510.6062 307.6334 -0.6833 84.1152 30578.7833 -0.6833 84.1152
ENERGY: 300000 1.8087 17.6999 2.5774 0.0000 -10828.3547 1447.7061 0.0000 0.0000 1842.3030 -7516.2595 308.7724 -9358.5625 -7538.7306 304.3822 -48.4005 27.3625 30580.9378 -344.6805 -279.6351
ENERGY: 600000 1.1055 13.4496 3.0569 0.0000 -10819.1075 1424.5741 0.0000 0.0000 1799.2562 -7577.6652 301.5577 -9376.9213 -7546.6930 303.3254 -127.5278 -77.4927 30287.8594 -249.6822 -201.8507
ENERGY: 900000 0.8889 12.5836 5.0812 0.0000 -10640.3403 1338.8057 0.0000 0.0000 1738.5460 -7544.4349 291.3826 -9282.9809 -7543.7886 299.7949 -933.2110 -843.3130 30873.5755 -219.6113 -165.7939
ENERGY: 1200000 3.6250 12.0626 3.0293 0.0000 -10750.3447 1363.8582 0.0000 0.0000 1774.2055 -7593.5641 297.3591 -9367.7696 -7547.8572 299.9729 -905.9973 -890.4991 30794.4576 -261.8383 -210.7800
ENERGY: 1500000 2.4505 10.5364 4.7785 0.0000 -10892.9695 1522.4620 0.0000 0.0000 1796.2550 -7556.4872 301.0547 -9352.7422 -7551.3492 300.2718 605.0279 620.7065 30779.2566 -213.6310 -161.6848
TCL: Running FEP window   8: Lambda1 0.35   Lambda2 0.39999999999999997 [dLambda 0.04999999999999999]
TCL: Setting parameter firsttimestep to 0
TCL: Setting parameter alchLambda to 0.35
Info: NONBONDED TABLE R-SQUARED SPACING: 0.0625
Info: NONBONDED TABLE SIZE: 705 POINTS
TCL: Setting parameter alchLambda2 to 0.39999999999999997
Info: NONBONDED TABLE R-SQUARED SPACING: 0.0625
Info: NONBONDED TABLE SIZE: 705 POINTS
TCL: Running for 1500000 steps
ETITLE: TS BOND ANGLE DIHED IMPRP ELECT VDW BOUNDARY MISC KINETIC TOTAL TEMP POTENTIAL TOTALAVG TEMPAVG PRESSURE GPRESSURE VOLUME PRESSAVG GPRESSAVG
ENERGY: 0 2.4505 10.5365 4.7785 0.0000 -10892.9681 1522.3006 0.0000 0.0000 1795.4092 -7557.4928 300.9129 -9352.9021 -7557.4928 300.9129 533.6732 627.3400 30779.2566 533.6732 627.3400
ENERGY: 300000 3.4289 11.9634 2.2586 0.0000 -10744.2171 1442.8921 0.0000 0.0000 1771.5243 -7512.1498 296.9098 -9283.6741 -7548.1821 297.2319 -74.7272 25.0293 31138.5586 -63.8187 -1.1145
ENERGY: 600000 1.9551 10.2196 6.8513 0.0000 -10827.9075 1493.0857 0.0000 0.0000 1823.3833 -7492.4125 305.6014 -9315.7958 -7520.1966 300.6038 142.1631 131.9497 31116.6378 -146.3144 -90.9517
ENERGY: 900000 1.3668 10.9466 2.9163 0.0000 -10826.4444 1437.9733 0.0000 0.0000 1786.1879 -7587.0535 299.3674 -9373.2414 -7528.1054 301.4374 -27.5025 13.9154 30339.3625 -89.7513 -27.4643
ENERGY: 1200000 1.6618 12.3776 3.7240 0.0000 -10773.3188 1397.4834 0.0000 0.0000 1843.4117 -7514.6602 308.9582 -9358.0719 -7533.1585 302.1149 -476.7512 -440.8774 30798.2638 -121.1365 -62.7616
ENERGY: 1500000 2.8315 14.3728 3.7682 0.0000 -10837.4312 1452.3275 0.0000 0.0000 1848.4020 -7515.7291 309.7946 -9364.1311 -7532.3897 302.5338 72.4586 115.8872 30785.1022 -77.0679 -19.0788
TCL: Running FEP window   9: Lambda1 0.39999999999999997 Lambda2 0.44999999999999996 [dLambda 0.04999999999999999]
TCL: Setting parameter firsttimestep to 0
TCL: Setting parameter alchLambda to 0.39999999999999997
Info: NONBONDED TABLE R-SQUARED SPACING: 0.0625
Info: NONBONDED TABLE SIZE: 705 POINTS
TCL: Setting parameter alchLambda2 to 0.44999999999999996
Info: NONBONDED TABLE R-SQUARED SPACING: 0.0625
Info: NONBONDED TABLE SIZE: 705 POINTS
TCL: Running for 1500000 steps
ETITLE: TS BOND ANGLE DIHED IMPRP ELECT VDW BOUNDARY MISC KINETIC TOTAL TEMP POTENTIAL TOTALAVG TEMPAVG PRESSURE GPRESSURE VOLUME PRESSAVG GPRESSAVG
ENERGY: 0 2.8315 14.3728 3.7682 0.0000 -10837.4310 1451.9381 0.0000 0.0000 1847.4868 -7517.0336 309.6412 -9364.5204 -7517.0336 309.6412 49.4895 120.2138 30785.1022 49.4895 120.2138
ENERGY: 300000 0.6862 14.0735 3.6338 0.0000 -10959.0898 1531.7741 0.0000 0.0000 1829.8732 -7579.0490 306.6891 -9408.9222 -7528.5063 307.0112 431.1376 511.7393 30515.9823 -208.5887 -144.5683
ENERGY: 600000 2.7096 13.0389 4.7990 0.0000 -10866.8216 1518.4188 0.0000 0.0000 1862.8301 -7465.0253 312.2127 -9327.8554 -7544.9201 303.8658 412.9553 493.6255 30856.0279 -54.1664 -1.1289
ENERGY: 900000 3.5342 13.5783 2.7812 0.0000 -10717.2606 1426.4384 0.0000 0.0000 1774.9992 -7495.9294 297.4922 -9270.9286 -7523.3810 303.9009 -187.9216 -114.4566 31117.8386 -145.2897 -92.5355
ENERGY: 1200000 1.8585 14.4535 3.1128 0.0000 -10647.3871 1356.2048 0.0000 0.0000 1798.5627 -7473.1948 301.4414 -9271.7575 -7518.2102 304.2313 -695.2918 -650.3616 31021.0784 -162.5172 -114.0493
ENERGY: 1500000 1.2777 12.5313 3.6600 0.0000 -10886.3429 1458.8263 0.0000 0.0000 1861.6325 -7548.4151 312.0120 -9410.0476 -7522.7953 303.9022 201.5873 267.0245 30473.8951 -90.5059 -41.7485
TCL: Running FEP window  10: Lambda1 0.44999999999999996 Lambda2 0.49999999999999994 [dLambda 0.04999999999999999]
TCL: Setting parameter firsttimestep to 0
TCL: Setting parameter alchLambda to 0.44999999999999996
Info: NONBONDED TABLE R-SQUARED SPACING: 0.0625
Info: NONBONDED TABLE SIZE: 705 POINTS
TCL: Setting parameter alchLambda2 to 0.49999999999999994
Info: NONBONDED TABLE R-SQUARED SPACING: 0.0625
Info: NONBONDED TABLE SIZE: 705 POINTS
TCL: Running for 1500000 steps
ETITLE: TS BOND ANGLE DIHED IMPRP ELECT VDW BOUNDARY MISC KINETIC TOTAL TEMP POTENTIAL TOTALAVG TEMPAVG PRESSURE GPRESSURE VOLUME PRESSAVG GPRESSAVG
ENERGY: 0 1.2777 12.5313 3.6600 0.0000 -10886.3411 1460.0111 0.0000 0.0000 1860.7346 -7548.1264 311.8615 -9408.8609 -7548.1264 311.8615 196.0149 283.0184 30473.8951 196.0149 283.0184
ENERGY: 300000 2.7272 7.5029 4.8284 0.0000 -10884.7796 1424.2939 0.0000 0.0000 1799.5392 -7645.8880 301.6051 -9445.4272 -7559.6188 303.1160 -149.4872 -64.4769 29934.7981 -53.0839 13.5737
ENERGY: 600000 3.2947 10.5136 3.7227 0.0000 -10743.6336 1414.5028 0.0000 0.0000 1788.2557 -7523.3441 299.7140 -9311.5998 -7547.1625 302.0243 -483.9361 -417.2821 31156.2893 -186.7375 -115.9624
ENERGY: 900000 1.1385 14.7561 2.6492 0.0000 -10779.4405 1427.0040 0.0000 0.0000 1838.6738 -7495.2189 308.1641 -9333.8927 -7537.1476 302.7653 -32.5353 11.8738 30716.7501 -259.4633 -190.7881
ENERGY: 1200000 2.9353 10.5075 2.4498 0.0000 -10789.7242 1497.9468 0.0000 0.0000 1778.1859 -7497.6989 298.0263 -9275.8848 -7538.5132 302.0905 234.1715 317.1350 31077.6515 -316.1880 -247.9337
ENERGY: 1500000 2.8536 13.6465 5.8978 0.0000 -10902.1079 1535.4743 0.0000 0.0000 1778.2841 -7565.9516 298.0427 -9344.2356 -7533.2437 301.8805 1069.3548 1150.5451 30212.5527 -221.7293 -154.4258
TCL: Running FEP window  11: Lambda1 0.49999999999999994 Lambda2 0.5499999999999999 [dLambda 0.04999999999999999]
TCL: Setting parameter firsttimestep to 0
TCL: Setting parameter alchLambda to 0.49999999999999994
Info: NONBONDED TABLE R-SQUARED SPACING: 0.0625
Info: NONBONDED TABLE SIZE: 705 POINTS
TCL: Setting parameter alchLambda2 to 0.5499999999999999
Info: NONBONDED TABLE R-SQUARED SPACING: 0.0625
Info: NONBONDED TABLE SIZE: 705 POINTS
TCL: Running for 1500000 steps
ETITLE: TS BOND ANGLE DIHED IMPRP ELECT VDW BOUNDARY MISC KINETIC TOTAL TEMP POTENTIAL TOTALAVG TEMPAVG PRESSURE GPRESSURE VOLUME PRESSAVG GPRESSAVG
ENERGY: 0 2.8536 13.6465 5.8978 0.0000 -10902.1087 1536.0513 0.0000 0.0000 1777.3850 -7566.2746 297.8920 -9343.6595 -7566.2746 297.8920 1090.2971 1163.4179 30212.5527 1090.2971 1163.4179
ENERGY: 300000 2.9867 15.5888 2.3344 0.0000 -10828.5151 1461.4856 0.0000 0.0000 1746.4194 -7599.7003 292.7022 -9346.1197 -7582.4615 295.9182 226.1278 218.1015 30475.4236 276.6776 295.9142
ENERGY: 600000 1.9030 16.6556 5.8193 0.0000 -10878.7626 1474.4230 0.0000 0.0000 1788.7439 -7591.2178 299.7958 -9379.9617 -7591.8730 295.6078 57.9687 150.9849 30490.2079 133.1400 175.1595
ENERGY: 900000 2.0253 15.3889 2.1569 0.0000 -10673.5820 1349.0337 0.0000 0.0000 1782.5313 -7522.4459 298.7546 -9304.9773 -7564.2816 298.1295 -770.6436 -677.6270 30958.7694 30.4564 85.2014
ENERGY: 1200000 1.3200 14.9453 3.6572 0.0000 -10813.8318 1478.7533 0.0000 0.0000 1826.7197 -7488.4363 306.1606 -9315.1560 -7552.8335 299.1043 498.9239 572.0119 30500.2617 158.9543 217.1723
ENERGY: 1500000 3.3065 13.7394 4.0409 0.0000 -10902.5278 1490.3539 0.0000 0.0000 1816.5101 -7574.5770 304.4494 -9391.0871 -7557.9466 299.1154 218.7475 233.9127 30391.3158 140.2320 196.7000
TCL: Running FEP window  12: Lambda1 0.5499999999999999 Lambda2 0.6    [dLambda 0.050000000000000044]
TCL: Setting parameter firsttimestep to 0
TCL: Setting parameter alchLambda to 0.5499999999999999
Info: NONBONDED TABLE R-SQUARED SPACING: 0.0625
Info: NONBONDED TABLE SIZE: 705 POINTS
TCL: Setting parameter alchLambda2 to 0.6
Info: NONBONDED TABLE R-SQUARED SPACING: 0.0625
Info: NONBONDED TABLE SIZE: 705 POINTS
TCL: Running for 1500000 steps
ETITLE: TS BOND ANGLE DIHED IMPRP ELECT VDW BOUNDARY MISC KINETIC TOTAL TEMP POTENTIAL TOTALAVG TEMPAVG PRESSURE GPRESSURE VOLUME PRESSAVG GPRESSAVG
ENERGY: 0 3.3065 13.7394 4.0409 0.0000 -10902.8972 1490.1943 0.0000 0.0000 1815.6656 -7575.9504 304.3079 -9391.6160 -7575.9504 304.3079 158.2161 239.9564 30391.3158 158.2161 239.9564
ENERGY: 300000 2.9839 8.3822 4.9071 0.0000 -10776.5973 1440.8983 0.0000 0.0000 1808.2118 -7511.2139 303.0586 -9319.4258 -7539.3197 301.6119 -97.9598 0.9523 31056.7084 133.3694 224.8836
ENERGY: 600000 2.1157 14.8295 4.0615 0.0000 -10788.3741 1434.1788 0.0000 0.0000 1784.5908 -7548.5977 299.0997 -9333.1886 -7524.4377 301.5793 -281.1685 -215.1265 31111.2338 48.8438 130.7795
ENERGY: 900000 1.1354 13.9266 3.3207 0.0000 -10867.8051 1524.8855 0.0000 0.0000 1798.2060 -7526.3309 301.3816 -9324.5369 -7524.3476 302.6896 486.4336 575.3344 30755.0829 -8.1208 67.1964
ENERGY: 1200000 3.5162 12.1717 2.2737 0.0000 -10858.2591 1451.6435 0.0000 0.0000 1770.1475 -7618.5066 296.6790 -9388.6541 -7537.7984 301.4830 -199.8434 -113.0974 30745.0583 -85.7591 -9.8521
ENERGY: 1500000 3.2656 16.7171 2.9115 0.0000 -10857.0536 1476.6120 0.0000 0.0000 1738.2766 -7619.2707 291.3374 -9357.5474 -7540.4005 301.2351 267.9861 366.5947 30440.7682 -38.9726 38.5648
TCL: Running FEP window  13: Lambda1 0.6    Lambda2 0.65   [dLambda 0.050000000000000044]
TCL: Setting parameter firsttimestep to 0
TCL: Setting parameter alchLambda to 0.6
Info: NONBONDED TABLE R-SQUARED SPACING: 0.0625
Info: NONBONDED TABLE SIZE: 705 POINTS
TCL: Setting parameter alchLambda2 to 0.65
Info: NONBONDED TABLE R-SQUARED SPACING: 0.0625
Info: NONBONDED TABLE SIZE: 705 POINTS
TCL: Running for 1500000 steps
ETITLE: TS BOND ANGLE DIHED IMPRP ELECT VDW BOUNDARY MISC KINETIC TOTAL TEMP POTENTIAL TOTALAVG TEMPAVG PRESSURE GPRESSURE VOLUME PRESSAVG GPRESSAVG
ENERGY: 0 3.2656 16.7171 2.9115 0.0000 -10857.0740 1477.9932 0.0000 0.0000 1737.3816 -7618.8050 291.1874 -9356.1865 -7618.8050 291.1874 307.9305 391.5175 30440.7682 307.9305 391.5175
ENERGY: 300000 2.1491 15.8515 6.0320 0.0000 -10848.9525 1490.9354 0.0000 0.0000 1808.2620 -7525.7226 303.0671 -9333.9846 -7571.3634 298.6088 371.4919 362.0849 31164.3266 268.9837 329.0399
ENERGY: 600000 1.9782 11.5738 2.8710 0.0000 -10890.1601 1523.4737 0.0000 0.0000 1791.7289 -7558.5345 300.2961 -9350.2634 -7555.3975 300.8576 591.7746 577.0282 30827.7280 43.2258 105.5185
ENERGY: 900000 3.0221 11.2312 3.0327 0.0000 -10717.3025 1394.0662 0.0000 0.0000 1784.4625 -7521.4879 299.0782 -9305.9504 -7536.4215 301.9200 -509.5246 -486.1404 30920.2780 38.3273 101.1997
ENERGY: 1200000 3.2737 12.8764 2.7907 0.0000 -10953.1606 1528.3557 0.0000 0.0000 1842.9938 -7562.8703 308.8881 -9405.8641 -7539.8280 302.4508 302.6733 373.1849 31304.8532 85.0325 142.7028
ENERGY: 1500000 3.6867 14.0916 2.9977 0.0000 -10970.6015 1531.5130 0.0000 0.0000 1813.3370 -7604.9754 303.9176 -9418.3124 -7541.0791 302.4996 329.8643 345.3381 30715.7991 164.9976 221.0032
TCL: Running FEP window  14: Lambda1 0.65   Lambda2 0.7000000000000001 [dLambda 0.050000000000000044]
TCL: Setting parameter firsttimestep to 0
TCL: Setting parameter alchLambda to 0.65
Info: NONBONDED TABLE R-SQUARED SPACING: 0.0625
Info: NONBONDED TABLE SIZE: 705 POINTS
TCL: Setting parameter alchLambda2 to 0.7000000000000001
Info: NONBONDED TABLE R-SQUARED SPACING: 0.0625
Info: NONBONDED TABLE SIZE: 705 POINTS
TCL: Running for 1500000 steps
ETITLE: TS BOND ANGLE DIHED IMPRP ELECT VDW BOUNDARY MISC KINETIC TOTAL TEMP POTENTIAL TOTALAVG TEMPAVG PRESSURE GPRESSURE VOLUME PRESSAVG GPRESSAVG
ENERGY: 0 3.6867 14.0916 2.9977 0.0000 -10970.7479 1531.0772 0.0000 0.0000 1812.4474 -7606.4472 303.7685 -9418.8947 -7606.4472 303.7685 284.2644 351.6834 30715.7991 284.2644 351.6834
ENERGY: 300000 2.2655 15.7613 3.2565 0.0000 -10691.1513 1426.4555 0.0000 0.0000 1735.9323 -7507.4802 290.9445 -9243.4125 -7559.4609 298.4126 71.1893 75.1525 30786.9060 125.6003 153.2778
ENERGY: 600000 7.1494 12.7184 4.5194 0.0000 -10810.5991 1377.3743 0.0000 0.0000 1820.6671 -7588.1706 305.1462 -9408.8377 -7571.1159 300.3472 -989.7665 -929.3164 30631.0938 -155.3357 -115.4871
ENERGY: 900000 1.3207 11.6298 4.2684 0.0000 -10824.4185 1445.7820 0.0000 0.0000 1765.9003 -7595.5174 295.9672 -9361.4177 -7577.4467 299.3486 -306.5041 -203.5821 31000.0600 -153.6736 -102.6630
ENERGY: 1200000 1.6609 12.7257 3.5367 0.0000 -10676.2625 1374.7638 0.0000 0.0000 1836.4102 -7447.1653 307.7847 -9283.5755 -7567.5657 300.8490 -384.6534 -308.4621 30919.2380 -55.9048 -1.6107
ENERGY: 1500000 1.2777 11.0505 4.6380 0.0000 -10724.0311 1394.3220 0.0000 0.0000 1763.5511 -7549.1918 295.5734 -9312.7429 -7559.4405 301.0895 -411.9919 -368.9623 30601.4195 -51.5228 0.3344
TCL: Running FEP window  15: Lambda1 0.7000000000000001 Lambda2 0.7500000000000001 [dLambda 0.050000000000000044]
TCL: Setting parameter firsttimestep to 0
TCL: Setting parameter alchLambda to 0.7000000000000001
Info: NONBONDED TABLE R-SQUARED SPACING: 0.0625
Info: NONBONDED TABLE SIZE: 705 POINTS
TCL: Setting parameter alchLambda2 to 0.7500000000000001
Info: NONBONDED TABLE R-SQUARED SPACING: 0.0625
Info: NONBONDED TABLE SIZE: 705 POINTS
TCL: Running for 1500000 steps
ETITLE: TS BOND ANGLE DIHED IMPRP ELECT VDW BOUNDARY MISC KINETIC TOTAL TEMP POTENTIAL TOTALAVG TEMPAVG PRESSURE GPRESSURE VOLUME PRESSAVG GPRESSAVG
ENERGY: 0 1.2777 11.0505 4.6380 0.0000 -10724.5996 1395.0870 0.0000 0.0000 1762.6740 -7549.8726 295.4264 -9312.5465 -7549.8726 295.4264 -435.6221 -347.4056 30601.4195 -435.6221 -347.4056
ENERGY: 300000 2.1959 13.1602 2.8173 0.0000 -10715.5820 1414.1519 0.0000 0.0000 1911.3107 -7371.9460 320.3381 -9283.2567 -7499.5715 307.6671 -290.4230 -217.2065 31200.2122 -27.3436 42.7143
ENERGY: 600000 3.7693 14.1843 5.5652 0.0000 -10755.3084 1424.9583 0.0000 0.0000 1837.0634 -7469.7679 307.8942 -9306.8313 -7505.1878 307.3444 -196.8613 -159.8180 30986.0205 13.7294 70.5536
ENERGY: 900000 1.2340 9.1373 2.7742 0.0000 -10815.1384 1508.7690 0.0000 0.0000 1809.5971 -7483.6268 303.2908 -9293.2239 -7516.0968 304.0012 535.4152 613.7651 31095.1334 -3.9401 55.4118
ENERGY: 1200000 2.7595 12.0561 6.8711 0.0000 -10743.0419 1391.9249 0.0000 0.0000 1782.3593 -7547.0709 298.7257 -9329.4302 -7520.8078 303.3112 -487.6114 -432.3090 30870.8465 -50.2212 8.7311
ENERGY: 1500000 2.3798 11.6315 4.0655 0.0000 -10682.4822 1335.0107 0.0000 0.0000 1762.6930 -7566.7018 295.4296 -9329.3948 -7518.4067 302.5821 -954.1736 -850.1105 30724.2722 -148.1558 -84.7511
TCL: Running FEP window  16: Lambda1 0.7500000000000001 Lambda2 0.8000000000000002 [dLambda 0.050000000000000044]
TCL: Setting parameter firsttimestep to 0
TCL: Setting parameter alchLambda to 0.7500000000000001
Info: NONBONDED TABLE R-SQUARED SPACING: 0.0625
Info: NONBONDED TABLE SIZE: 705 POINTS
TCL: Setting parameter alchLambda2 to 0.8000000000000002
Info: NONBONDED TABLE R-SQUARED SPACING: 0.0625
Info: NONBONDED TABLE SIZE: 705 POINTS
TCL: Running for 1500000 steps
ETITLE: TS BOND ANGLE DIHED IMPRP ELECT VDW BOUNDARY MISC KINETIC TOTAL TEMP POTENTIAL TOTALAVG TEMPAVG PRESSURE GPRESSURE VOLUME PRESSAVG GPRESSAVG
ENERGY: 0 2.3798 11.6315 4.0655 0.0000 -10683.1214 1336.2775 0.0000 0.0000 1761.7969 -7566.9703 295.2794 -9328.7671 -7566.9703 295.2794 -905.9507 -826.2306 30724.2722 -905.9507 -826.2306
ENERGY: 300000 1.9398 9.1956 3.8672 0.0000 -10794.3432 1432.9010 0.0000 0.0000 1823.3376 -7523.1020 305.5937 -9346.4396 -7526.7236 303.4504 -217.3293 -159.9528 30863.0105 -153.2123 -97.1638
ENERGY: 600000 1.3264 14.0328 3.1550 0.0000 -10663.7633 1358.1732 0.0000 0.0000 1724.0409 -7563.0350 288.9515 -9287.0759 -7541.8715 300.2533 -569.8081 -514.5283 30920.2401 -318.7626 -264.1564
ENERGY: 900000 2.5700 11.2461 4.5871 0.0000 -10749.3748 1398.2148 0.0000 0.0000 1761.6888 -7571.0680 295.2613 -9332.7569 -7548.6075 300.0473 -648.7043 -568.3368 31389.0524 -302.6217 -255.3608
ENERGY: 1200000 1.2083 12.3314 3.2552 0.0000 -10994.7267 1478.9652 0.0000 0.0000 1799.8950 -7699.0716 301.6647 -9498.9666 -7563.3767 299.4697 -185.3073 -95.1185 30534.6902 -213.7670 -160.9956
ENERGY: 1500000 3.3701 12.9756 2.2216 0.0000 -10874.6568 1523.1624 0.0000 0.0000 1860.0085 -7472.9185 311.7398 -9332.9270 -7548.0250 300.6082 578.4444 666.0636 30475.3494 -103.6804 -49.9906
TCL: Running FEP window  17: Lambda1 0.8000000000000002 Lambda2 0.8500000000000002 [dLambda 0.050000000000000044]
TCL: Setting parameter firsttimestep to 0
TCL: Setting parameter alchLambda to 0.8000000000000002
Info: NONBONDED TABLE R-SQUARED SPACING: 0.0625
Info: NONBONDED TABLE SIZE: 705 POINTS
TCL: Setting parameter alchLambda2 to 0.8500000000000002
Info: NONBONDED TABLE R-SQUARED SPACING: 0.0625
Info: NONBONDED TABLE SIZE: 705 POINTS
TCL: Running for 1500000 steps
ETITLE: TS BOND ANGLE DIHED IMPRP ELECT VDW BOUNDARY MISC KINETIC TOTAL TEMP POTENTIAL TOTALAVG TEMPAVG PRESSURE GPRESSURE VOLUME PRESSAVG GPRESSAVG
ENERGY: 0 3.3701 12.9756 2.2216 0.0000 -10876.4692 1523.8936 0.0000 0.0000 1859.1238 -7474.8843 311.5916 -9334.0081 -7474.8843 311.5916 606.9655 684.3890 30475.3494 606.9655 684.3890
ENERGY: 300000 5.1859 14.6242 4.2831 0.0000 -10790.6243 1414.2624 0.0000 0.0000 1835.2817 -7516.9870 307.5956 -9352.2686 -7516.9426 302.0598 -46.5494 -12.1141 30619.7121 -171.4427 -109.8473
ENERGY: 600000 1.9395 9.8608 2.0187 0.0000 -10760.3755 1388.3281 0.0000 0.0000 1789.3267 -7568.9016 299.8935 -9358.2284 -7547.1255 301.1940 -274.4743 -168.5232 30414.8802 -192.0648 -138.3143
ENERGY: 900000 2.3765 11.2788 3.8511 0.0000 -10840.3116 1521.6301 0.0000 0.0000 1807.5422 -7493.6328 302.9464 -9301.1750 -7540.8043 301.2910 527.0971 603.1396 30848.1698 32.8108 84.2284
ENERGY: 1200000 0.9373 6.9492 2.0765 0.0000 -10839.8341 1494.9096 0.0000 0.0000 1813.2833 -7521.6782 303.9086 -9334.9615 -7534.1916 302.1518 524.8264 612.8751 30555.7650 93.9538 154.6802
ENERGY: 1500000 5.5036 13.4501 2.4014 0.0000 -10853.1953 1460.5220 0.0000 0.0000 1787.7781 -7583.5402 299.6339 -9371.3183 -7534.1232 302.0215 26.3639 129.6336 30615.8946 66.5651 131.6128
TCL: Running FEP window  18: Lambda1 0.8500000000000002 Lambda2 0.9000000000000002 [dLambda 0.050000000000000044]
TCL: Setting parameter firsttimestep to 0
TCL: Setting parameter alchLambda to 0.8500000000000002
Info: NONBONDED TABLE R-SQUARED SPACING: 0.0625
Info: NONBONDED TABLE SIZE: 705 POINTS
TCL: Setting parameter alchLambda2 to 0.9000000000000002
Info: NONBONDED TABLE R-SQUARED SPACING: 0.0625
Info: NONBONDED TABLE SIZE: 705 POINTS
TCL: Running for 1500000 steps
ETITLE: TS BOND ANGLE DIHED IMPRP ELECT VDW BOUNDARY MISC KINETIC TOTAL TEMP POTENTIAL TOTALAVG TEMPAVG PRESSURE GPRESSURE VOLUME PRESSAVG GPRESSAVG
ENERGY: 0 5.5036 13.4501 2.4014 0.0000 -10854.5653 1461.5982 0.0000 0.0000 1786.8994 -7584.7127 299.4866 -9371.6120 -7584.7127 299.4866 60.4647 152.8772 30615.8946 60.4647 152.8772
ENERGY: 300000 0.9629 18.0652 2.0323 0.0000 -10784.7992 1455.3805 0.0000 0.0000 1757.5077 -7550.8507 294.5606 -9308.3584 -7588.5394 299.2987 129.1219 215.3104 30777.6186 -33.4534 47.0751
ENERGY: 600000 3.5728 10.3892 2.6255 0.0000 -10827.8125 1466.0659 0.0000 0.0000 1760.3319 -7584.8272 295.0339 -9345.1591 -7578.2691 299.3352 74.2800 136.3145 30878.3807 0.2784 87.2354
ENERGY: 900000 1.6312 12.6544 3.9386 0.0000 -10755.4118 1377.3712 0.0000 0.0000 1793.4928 -7566.3236 300.5917 -9359.8164 -7565.4959 300.1201 -314.9852 -227.4934 30607.7396 -93.9842 -16.2234
ENERGY: 1200000 1.1401 9.5384 5.4969 0.0000 -10854.4457 1433.7021 0.0000 0.0000 1776.6237 -7627.9445 297.7644 -9404.5682 -7565.3652 300.8935 -84.6590 27.9218 30722.4264 -107.5114 -31.4918
ENERGY: 1500000 3.0940 16.2735 3.7880 0.0000 -10872.8619 1476.5036 0.0000 0.0000 1794.9387 -7578.2642 300.8340 -9373.2028 -7563.8946 300.3097 180.4343 220.4811 30660.4692 -51.7415 17.0503
TCL: Running FEP window  19: Lambda1 0.9000000000000002 Lambda2 0.9500000000000003 [dLambda 0.050000000000000044]
TCL: Setting parameter firsttimestep to 0
TCL: Setting parameter alchLambda to 0.9000000000000002
Info: NONBONDED TABLE R-SQUARED SPACING: 0.0625
Info: NONBONDED TABLE SIZE: 705 POINTS
TCL: Setting parameter alchLambda2 to 0.9500000000000003
Info: NONBONDED TABLE R-SQUARED SPACING: 0.0625
Info: NONBONDED TABLE SIZE: 705 POINTS
TCL: Running for 1500000 steps
ETITLE: TS BOND ANGLE DIHED IMPRP ELECT VDW BOUNDARY MISC KINETIC TOTAL TEMP POTENTIAL TOTALAVG TEMPAVG PRESSURE GPRESSURE VOLUME PRESSAVG GPRESSAVG
ENERGY: 0 3.0940 16.2735 3.7880 0.0000 -10874.3264 1479.1524 0.0000 0.0000 1794.0201 -7577.9984 300.6801 -9372.0185 -7577.9984 300.6801 181.7966 268.5688 30660.4692 181.7966 268.5688
ENERGY: 300000 3.2851 14.7030 3.9295 0.0000 -10846.0845 1454.9809 0.0000 0.0000 1814.9069 -7554.2792 304.1808 -9369.1861 -7564.4807 299.7778 -85.8712 -9.1603 31175.9775 45.0412 110.4111
ENERGY: 600000 2.5527 8.2670 4.6195 0.0000 -10649.3230 1377.1105 0.0000 0.0000 1874.5677 -7382.2057 314.1800 -9256.7734 -7520.2743 303.1667 -390.8719 -334.1900 31114.7340 -93.7196 -28.8655
ENERGY: 900000 1.4864 8.4366 3.9985 0.0000 -10879.3221 1449.3034 0.0000 0.0000 1774.4991 -7641.5980 297.4084 -9416.0972 -7533.5275 303.1920 -1.7589 -17.4984 30694.8308 -105.4020 -49.3315
ENERGY: 1200000 2.1216 10.8607 2.9206 0.0000 -10859.5264 1472.5409 0.0000 0.0000 1774.5629 -7596.5196 297.4190 -9371.0826 -7548.4710 303.1433 150.6472 302.3167 30675.7716 -64.8461 -0.4899
ENERGY: 1500000 0.7570 12.4552 3.2746 0.0000 -10799.2085 1466.5103 0.0000 0.0000 1814.7982 -7501.4132 304.1625 -9316.2115 -7542.6439 303.1256 305.9053 362.4565 30953.6442 -79.9672 -13.3860
TCL: Running FEP window  20: Lambda1 0.9500000000000003 Lambda2 1.0    [dLambda 0.04999999999999971]
TCL: Setting parameter firsttimestep to 0
TCL: Setting parameter alchLambda to 0.9500000000000003
Info: NONBONDED TABLE R-SQUARED SPACING: 0.0625
Info: NONBONDED TABLE SIZE: 705 POINTS
TCL: Setting parameter alchLambda2 to 1.0
Info: NONBONDED TABLE R-SQUARED SPACING: 0.0625
Info: NONBONDED TABLE SIZE: 705 POINTS
TCL: Running for 1500000 steps
ETITLE: TS BOND ANGLE DIHED IMPRP ELECT VDW BOUNDARY MISC KINETIC TOTAL TEMP POTENTIAL TOTALAVG TEMPAVG PRESSURE GPRESSURE VOLUME PRESSAVG GPRESSAVG
ENERGY: 0 0.7570 12.4552 3.2746 0.0000 -10800.6523 1467.9412 0.0000 0.0000 1813.8500 -7502.3743 304.0036 -9316.2243 -7502.3743 304.0036 306.7691 398.7268 30953.6442 306.7691 398.7268
ENERGY: 300000 2.0176 8.8255 5.2308 0.0000 -10851.3311 1419.5431 0.0000 0.0000 1789.7220 -7625.9920 299.9597 -9415.7140 -7560.1618 302.0369 -424.5236 -378.1554 30771.8288 98.5421 150.6251
ENERGY: 600000 5.9282 10.7077 2.3952 0.0000 -10694.4634 1363.5659 0.0000 0.0000 1721.6381 -7590.2283 288.5488 -9311.8664 -7562.7527 299.4321 -732.2815 -670.7150 31206.1178 20.9422 85.5134
ENERGY: 900000 1.6885 17.4103 5.1092 0.0000 -10866.3527 1438.3956 0.0000 0.0000 1748.3781 -7655.3711 293.0304 -9403.7492 -7555.1742 299.1101 -351.7914 -321.1991 31003.2903 -26.1481 34.4854
ENERGY: 1200000 2.7196 14.6279 2.4778 0.0000 -10801.9545 1434.8806 0.0000 0.0000 1790.1392 -7557.1093 300.0297 -9347.2486 -7559.0244 298.8550 -180.2767 -51.7081 31076.0530 -16.9741 48.4645
ENERGY: 1500000 2.3015 11.8666 4.1985 0.0000 -10913.7433 1549.3773 0.0000 0.0000 1735.4190 -7610.5804 290.8585 -9345.9994 -7560.4458 298.2282 680.5029 750.8262 30853.6588 68.4203 134.9021
TCL: Exiting due to exit command.
