Info: SIMULATION PARAMETERS:
Info: TIMESTEP               2
Info: NUMBER OF STEPS        0
Info: STEPS PER CYCLE        10
Info: PERIODIC CELL BASIS 1  31.6506 0 0
Info: PERIODIC CELL BASIS 2  0 29.2851 0
Info: PERIODIC CELL BASIS 3  0 0 32.6967
Info: PERIODIC CELL CENTER   0 0 0
Info: WRAPPING WATERS AROUND PERIODIC BOUNDARIES ON OUTPUT.
Info: WRAPPING ALL CLUSTERS AROUND PERIODIC BOUNDARIES ON OUTPUT.
Info: FIRST LDB TIMESTEP     50
Info: LAST LDB TIMESTEP     -1
Info: HOM BACKGROUND SCALING 1
Info: PME BACKGROUND SCALING 1
Info: MIN ATOMS PER PATCH    40
Info: EMPTY PATCH LOAD       40 ATOMS
Info: VELOCITY FILE          mobley_4375719_equil.vel
Info: CENTER OF MASS MOVING INITIALLY? NO
Info: DIELECTRIC             1
Info: EXCLUDE                SCALED ONE-FOUR
Info: 1-4 ELECTROSTATICS SCALED BY 0.833333
Info: MODIFIED 1-4 VDW PARAMETERS WILL BE USED
Info: DCD FILENAME           mobley_4375719_prod.dcd
Info: DCD FREQUENCY          100000
Info: DCD FIRST STEP         100000
Info: DCD FILE WILL CONTAIN UNIT CELL DATA
Info: XST FILENAME           mobley_4375719_prod.xst
Info: XST FREQUENCY          100000
Info: NO VELOCITY DCD OUTPUT
Info: NO FORCE DCD OUTPUT
Info: OUTPUT FILENAME        mobley_4375719_prod
Info: BINARY OUTPUT FILES WILL BE USED
Info: RESTART FILENAME       mobley_4375719_prod.restart
Info: RESTART FREQUENCY      100000
Info: BINARY RESTART FILES WILL BE USED
Info: CUTOFF                 9
Info: PAIRLIST DISTANCE      11
Info: PAIRLIST SHRINK RATE   0.01
Info: PAIRLIST GROW RATE     0.01
Info: PAIRLIST TRIGGER       0.3
Info: PAIRLISTS PER CYCLE    2
Info: PAIRLISTS ENABLED
Info: MARGIN                 2
Info: HYDROGEN GROUP CUTOFF  2.5
Info: PATCH DIMENSION        15.5
Info: ENERGY OUTPUT STEPS    100000
Info: ENERGY EVALUATION STEPS    100000
Info: OUTPUT ENERGY PRECISION 4
Info: CROSSTERM ENERGY INCLUDED IN DIHEDRAL
Info: TIMING OUTPUT STEPS    1000000
Info: PRESSURE OUTPUT STEPS  100000
Info: ALCHEMICAL FEP ON
Info: FEP CURRENT LAMBDA VALUE     1
Info: FEP COMPARISON LAMBDA VALUE  0.95
Info: FEP INTRA-ALCHEMICAL NON-BONDED INTERACTIONS WILL BE RETAINED
Info: FEP INTRA-ALCHEMICAL BONDED INTERACTIONS WILL BE RETAINED
Info: FEP VDW SHIFTING COEFFICIENT 5
Info: FEP ELEC. ACTIVE FOR ANNIHILATED PARTICLES BETWEEN LAMBDA = 0 AND LAMBDA = 0.5
Info: FEP ELEC. ACTIVE FOR EXNIHILATED PARTICLES BETWEEN LAMBDA = 0.5 AND LAMBDA = 1
Info: FEP VDW ACTIVE FOR ANNIHILATED PARTICLES BETWEEN LAMBDA = 0 AND LAMBDA = 1
Info: FEP VDW ACTIVE FOR EXNIHILATED PARTICLES BETWEEN LAMBDA = 0 AND LAMBDA = 1
Info: FEP BOND ACTIVE FOR ANNIHILATED PARTICLES BETWEEN LAMBDA = 1 AND LAMBDA = 1
Info: FEP BOND ACTIVE FOR EXNIHILATED PARTICLES BETWEEN LAMBDA = 0 AND LAMBDA = 0
Info: LANGEVIN DYNAMICS ACTIVE
Info: LANGEVIN TEMPERATURE   300
Info: LANGEVIN USING BBK INTEGRATOR
Info: LANGEVIN DAMPING COEFFICIENT IS 1 INVERSE PS
Info: LANGEVIN DYNAMICS APPLIED TO HYDROGENS
Info: LANGEVIN PISTON PRESSURE CONTROL ACTIVE
Info:        TARGET PRESSURE IS 1.01325 BAR
Info:     OSCILLATION PERIOD IS 50 FS
Info:             DECAY TIME IS 25 FS
Info:     PISTON TEMPERATURE IS 300 K
Info:       PRESSURE CONTROL IS GROUP-BASED
Info:    INITIAL STRAIN RATE IS 0.000292558 0.000292558 0.000292558
Info:       CELL FLUCTUATION IS ISOTROPIC
Info: PARTICLE MESH EWALD (PME) ACTIVE
Info: PME TOLERANCE               1e-06
Info: PME EWALD COEFFICIENT       0.348832
Info: PME INTERPOLATION ORDER     4
Info: PME GRID DIMENSIONS         32 32 36
Info: PME MAXIMUM GRID SPACING    1
Info: PME CALCULATION WILL BE PERFORMED ON GPU
Info: FULL ELECTROSTATIC EVALUATION FREQUENCY      2
Info: USING VERLET I (r-RESPA) MTS SCHEME.
Info: C1 SPLITTING OF LONG RANGE ELECTROSTATICS
Info: PLACING ATOMS IN PATCHES BY HYDROGEN GROUPS
Info: RIGID BONDS TO HYDROGEN : ALL
Info:         ERROR TOLERANCE : 1e-08
Info:          MAX ITERATIONS : 100
Info: RIGID WATER USING SETTLE ALGORITHM
Info: RANDOM NUMBER SEED     1744072847
Info: USE HYDROGEN BONDS?    NO
Info: Using AMBER format force field!
Info: AMBER PARM FILE        mobley_4375719.prmtop
Info: COORDINATE PDB         mobley_4375719.pdb
Info: Exclusions will be read from PARM file!
Info: SCNB (VDW SCALING)     2
Info: USING ARITHMETIC MEAN TO COMBINE L-J SIGMA PARAMETERS
Info: BINARY COORDINATES     mobley_4375719_equil.coor
Info: SUMMARY OF PARAMETERS:
Info: 4 BONDS
Info: 3 ANGLES
Info:   3 HARMONIC
Info:   0 COSINE-BASED
Info: 5 DIHEDRAL
Info: 0 IMPROPER
Info: 0 CROSSTERM
Info: 0 VDW
Info: 10 VDW_PAIRS
Info: 0 NBTHOLE_PAIRS
Info: To read alchdata from file: mobley_4375719.pdb
Info: To read alchflag data from column: 5
Info: STRUCTURE SUMMARY:
Info: 2945 ATOMS
Info: 2944 BONDS
Info: 54 ANGLES
Info: 84 DIHEDRALS
Info: 0 IMPROPERS
Info: 0 CROSSTERMS
Info: 3070 EXCLUSIONS
Info: 2936 RIGID BONDS
Info: ALCH: 0 ATOMS TO DISAPPEAR IN FINAL STATE
Info: ALCH: 29 ATOMS TO APPEAR IN FINAL STATE
Info: 5899 DEGREES OF FREEDOM
Info: 981 HYDROGEN GROUPS
Info: 4 ATOMS IN LARGEST HYDROGEN GROUP
Info: 981 MIGRATION GROUPS
Info: 4 ATOMS IN LARGEST MIGRATION GROUP
Info: TOTAL MASS = 17639.8 amu
Info: TOTAL CHARGE = 0 e
Info: MASS DENSITY = 0.966541 g/cm^3
Info: ATOM DENSITY = 0.0971746 atoms/A^3
Info: ADDED 0 IMPLICIT EXCLUSIONS
Info: NONBONDED TABLE R-SQUARED SPACING: 0.0625
Info: NONBONDED TABLE SIZE: 705 POINTS
Info: REMOVING COM VELOCITY 0.140171 0.094489 0.0301395
Info: Use 3D box decompostion in PME FFT.
Info: Updated CUDA force table with 4096 elements.
Info: Updated CUDA LJ table with 4 x 4 elements.
Info: Found 32 unique exclusion lists needing 124 bytes
TCL: Running for 1500000 steps
ETITLE: TS BOND ANGLE DIHED IMPRP ELECT VDW BOUNDARY MISC KINETIC TOTAL TEMP POTENTIAL TOTALAVG TEMPAVG PRESSURE GPRESSURE VOLUME PRESSAVG GPRESSAVG
ENERGY: 0 3.9083 20.3184 6.1172 0.0000 -10603.7303 1441.5730 0.0000 0.0000 1750.6270 -7381.1864 298.6796 -9131.8134 -7381.1864 298.6796 299.3516 362.2676 30306.2765 299.3516 362.2676
ENERGY: 300000 2.2933 13.8948 7.4632 0.0000 -10556.2123 1382.7791 0.0000 0.0000 1800.2013 -7349.5806 307.1376 -9149.7818 -7388.1641 302.1285 11.4657 14.4457 30266.4254 -308.3252 -266.9491
ENERGY: 600000 2.9427 15.0048 4.4944 0.0000 -10686.1490 1460.5135 0.0000 0.0000 1756.2155 -7446.9780 299.6331 -9203.1936 -7393.0960 303.2525 253.3698 303.7237 30436.4362 -245.3972 -196.6087
ENERGY: 900000 1.2766 12.4548 5.5925 0.0000 -10633.8624 1464.7734 0.0000 0.0000 1688.9448 -7460.8202 288.1558 -9149.7650 -7418.4043 300.4797 529.0599 561.2148 30208.1985 -190.1656 -136.2993
ENERGY: 1200000 2.2369 13.2584 3.9177 0.0000 -10610.1033 1469.9598 0.0000 0.0000 1781.7541 -7338.9764 303.9903 -9120.7305 -7410.4377 300.6710 228.6935 358.6307 30591.5364 -195.5822 -127.9055
ENERGY: 1500000 1.4194 13.6374 4.6304 0.0000 -10512.7311 1372.4320 0.0000 0.0000 1788.7961 -7331.8158 305.1918 -9120.6119 -7403.2750 301.1758 -369.5503 -302.8008 30498.0093 -154.9922 -84.7381
TCL: Running FEP window   2: Lambda1 0.95   Lambda2 0.8999999999999999 [dLambda -0.050000000000000044]
TCL: Setting parameter firsttimestep to 0
TCL: Setting parameter alchLambda to 0.95
Info: NONBONDED TABLE R-SQUARED SPACING: 0.0625
Info: NONBONDED TABLE SIZE: 705 POINTS
TCL: Setting parameter alchLambda2 to 0.8999999999999999
Info: NONBONDED TABLE R-SQUARED SPACING: 0.0625
Info: NONBONDED TABLE SIZE: 705 POINTS
TCL: Running for 1500000 steps
ETITLE: TS BOND ANGLE DIHED IMPRP ELECT VDW BOUNDARY MISC KINETIC TOTAL TEMP POTENTIAL TOTALAVG TEMPAVG PRESSURE GPRESSURE VOLUME PRESSAVG GPRESSAVG
ENERGY: 0 1.4194 13.6374 4.6304 0.0000 -10512.7462 1373.0267 0.0000 0.0000 1787.9071 -7332.1251 305.0401 -9120.0323 -7332.1251 305.0401 -395.6518 -309.6624 30498.0093 -395.6518 -309.6624
ENERGY: 300000 2.6688 12.0276 5.0581 0.0000 -10564.1257 1401.2255 0.0000 0.0000 1748.5176 -7394.6281 298.3197 -9143.1457 -7385.9292 300.0742 -106.8640 -34.2238 30658.7782 36.0198 103.5694
ENERGY: 600000 6.6033 16.8715 6.1268 0.0000 -10738.3484 1492.9505 0.0000 0.0000 1790.2488 -7425.5476 305.4396 -9215.7964 -7405.5970 299.9333 342.3866 378.7497 30128.1831 -101.1300 -34.7945
ENERGY: 900000 1.4142 15.5382 4.4099 0.0000 -10598.5246 1409.7878 0.0000 0.0000 1781.1369 -7386.2376 303.8850 -9167.3745 -7399.1050 300.1002 114.0132 156.2121 29799.2509 -41.6800 16.8915
ENERGY: 1200000 1.4118 10.4922 3.7876 0.0000 -10601.2200 1409.6725 0.0000 0.0000 1777.5581 -7398.2978 303.2744 -9175.8559 -7404.7201 300.2770 7.6006 7.4238 30228.6296 -100.2705 -46.4752
ENERGY: 1500000 1.5712 12.8371 5.1111 0.0000 -10515.9167 1352.5137 0.0000 0.0000 1769.1762 -7374.7074 301.8444 -9143.8837 -7401.9067 300.5932 -581.7036 -573.4231 30688.9598 -111.3243 -60.2634
TCL: Running FEP window   3: Lambda1 0.8999999999999999 Lambda2 0.8499999999999999 [dLambda -0.050000000000000044]
TCL: Setting parameter firsttimestep to 0
TCL: Setting parameter alchLambda to 0.8999999999999999
Info: NONBONDED TABLE R-SQUARED SPACING: 0.0625
Info: NONBONDED TABLE SIZE: 705 POINTS
TCL: Setting parameter alchLambda2 to 0.8499999999999999
Info: NONBONDED TABLE R-SQUARED SPACING: 0.0625
Info: NONBONDED TABLE SIZE: 705 POINTS
TCL: Running for 1500000 steps
ETITLE: TS BOND ANGLE DIHED IMPRP ELECT VDW BOUNDARY MISC KINETIC TOTAL TEMP POTENTIAL TOTALAVG TEMPAVG PRESSURE GPRESSURE VOLUME PRESSAVG GPRESSAVG
ENERGY: 0 1.5712 12.8371 5.1111 0.0000 -10515.8840 1353.4103 0.0000 0.0000 1768.3204 -7374.6340 301.6984 -9142.9544 -7374.6340 301.6984 -654.5610 -576.5385 30688.9598 -654.5610 -576.5385
ENERGY: 300000 3.5088 15.2438 5.8149 0.0000 -10541.5405 1389.3852 0.0000 0.0000 1762.4125 -7365.1753 300.6904 -9127.5878 -7389.7411 299.0097 -156.7590 -173.0880 30335.3857 -136.0064 -85.2056
ENERGY: 600000 2.8574 13.5491 4.0342 0.0000 -10598.0148 1389.6094 0.0000 0.0000 1772.6228 -7415.3418 302.4324 -9187.9646 -7381.5977 302.2689 -301.0358 -278.7586 30099.3719 -174.9836 -125.3972
ENERGY: 900000 0.7882 13.5890 4.8369 0.0000 -10635.7877 1368.2202 0.0000 0.0000 1747.2968 -7501.0566 298.1115 -9248.3535 -7397.8647 301.8256 -311.9733 -210.4766 29702.3107 -62.9531 1.2382
ENERGY: 1200000 3.5328 17.8041 4.5656 0.0000 -10615.9435 1493.0930 0.0000 0.0000 1719.1855 -7377.7625 293.3153 -9096.9480 -7403.4584 300.7826 526.1842 589.4478 30435.0509 -71.6274 -3.9338
ENERGY: 1500000 1.3666 14.9779 5.4884 0.0000 -10598.4393 1345.6718 0.0000 0.0000 1828.2502 -7402.6844 311.9232 -9230.9346 -7401.9950 301.5781 -789.9784 -766.2263 30392.4897 -151.9339 -89.7665
TCL: Running FEP window   4: Lambda1 0.8499999999999999 Lambda2 0.7999999999999998 [dLambda -0.050000000000000044]
TCL: Setting parameter firsttimestep to 0
TCL: Setting parameter alchLambda to 0.8499999999999999
Info: NONBONDED TABLE R-SQUARED SPACING: 0.0625
Info: NONBONDED TABLE SIZE: 705 POINTS
TCL: Setting parameter alchLambda2 to 0.7999999999999998
Info: NONBONDED TABLE R-SQUARED SPACING: 0.0625
Info: NONBONDED TABLE SIZE: 705 POINTS
TCL: Running for 1500000 steps
ETITLE: TS BOND ANGLE DIHED IMPRP ELECT VDW BOUNDARY MISC KINETIC TOTAL TEMP POTENTIAL TOTALAVG TEMPAVG PRESSURE GPRESSURE VOLUME PRESSAVG GPRESSAVG
ENERGY: 0 1.3666 14.9779 5.4884 0.0000 -10598.4505 1345.8212 0.0000 0.0000 1827.3678 -7403.4284 311.7726 -9230.7962 -7403.4284 311.7726 -861.8655 -777.2814 30392.4897 -861.8655 -777.2814
ENERGY: 300000 5.9335 14.6402 8.7158 0.0000 -10567.6823 1367.0500 0.0000 0.0000 1802.5793 -7368.7634 307.5434 -9171.3428 -7396.9018 305.3670 -543.3358 -483.5554 30339.0924 -392.8158 -329.8437
ENERGY: 600000 4.6143 12.0608 5.1410 0.0000 -10620.6036 1466.2901 0.0000 0.0000 1749.8061 -7382.6913 298.5396 -9132.4973 -7419.1141 301.8119 536.5920 571.1532 30393.9999 -132.5155 -69.1258
ENERGY: 900000 7.2672 15.9269 6.1778 0.0000 -10486.8280 1310.3259 0.0000 0.0000 1712.0991 -7435.0310 292.1063 -9147.1301 -7399.8247 301.1839 -928.5052 -924.7911 30584.5256 -180.8223 -132.3374
ENERGY: 1200000 6.5157 9.0675 6.1633 0.0000 -10494.8985 1359.7529 0.0000 0.0000 1750.8256 -7362.5735 298.7135 -9113.3990 -7385.3716 300.7344 -326.4419 -316.0748 30409.1983 -88.9124 -47.2126
ENERGY: 1500000 0.4142 14.7806 5.2143 0.0000 -10475.6688 1343.7005 0.0000 0.0000 1729.9862 -7381.5730 295.1580 -9111.5592 -7382.0249 300.9935 -599.4820 -507.7248 30395.8711 -146.6672 -95.8189
TCL: Running FEP window   5: Lambda1 0.7999999999999998 Lambda2 0.7499999999999998 [dLambda -0.050000000000000044]
TCL: Setting parameter firsttimestep to 0
TCL: Setting parameter alchLambda to 0.7999999999999998
Info: NONBONDED TABLE R-SQUARED SPACING: 0.0625
Info: NONBONDED TABLE SIZE: 705 POINTS
TCL: Setting parameter alchLambda2 to 0.7499999999999998
Info: NONBONDED TABLE R-SQUARED SPACING: 0.0625
Info: NONBONDED TABLE SIZE: 705 POINTS
TCL: Running for 1500000 steps
ETITLE: TS BOND ANGLE DIHED IMPRP ELECT VDW BOUNDARY MISC KINETIC TOTAL TEMP POTENTIAL TOTALAVG TEMPAVG PRESSURE GPRESSURE VOLUME PRESSAVG GPRESSAVG
ENERGY: 0 0.4142 14.7806 5.2143 0.0000 -10475.6861 1344.3829 0.0000 0.0000 1729.1238 -7381.7702 295.0109 -9110.8941 -7381.7702 295.0109 -590.2308 -510.2885 30395.8711 -590.2308 -510.2885
ENERGY: 300000 4.0647 15.3329 7.5191 0.0000 -10658.9714 1451.1596 0.0000 0.0000 1786.6335 -7394.2616 304.8228 -9180.8951 -7413.2860 298.4302 251.8166 325.7465 30095.9014 -133.5877 -58.7949
ENERGY: 600000 2.4938 14.6581 4.3121 0.0000 -10605.0357 1416.8067 0.0000 0.0000 1783.0455 -7383.7195 304.2106 -9166.7650 -7397.9376 300.9580 -42.8116 96.3036 30043.0994 -193.2723 -115.4780
ENERGY: 900000 4.9827 16.3559 4.2855 0.0000 -10695.8002 1474.3353 0.0000 0.0000 1754.9030 -7440.9378 299.4092 -9195.8408 -7402.7180 299.8453 284.6167 295.3874 30213.5921 -90.5709 -21.5534
ENERGY: 1200000 3.4102 12.3123 3.5867 0.0000 -10604.2758 1433.9021 0.0000 0.0000 1700.3135 -7450.7511 290.0955 -9151.0645 -7410.6332 298.8788 85.6588 126.9019 30167.6644 -95.2454 -30.0647
ENERGY: 1500000 1.5256 9.2116 4.4970 0.0000 -10639.5159 1422.3206 0.0000 0.0000 1786.8127 -7415.1484 304.8534 -9201.9611 -7406.5280 299.3874 -357.0152 -252.7007 30676.5476 -148.5068 -80.9326
TCL: Running FEP window   6: Lambda1 0.7499999999999998 Lambda2 0.6999999999999997 [dLambda -0.050000000000000044]
TCL: Setting parameter firsttimestep to 0
TCL: Setting parameter alchLambda to 0.7499999999999998
Info: NONBONDED TABLE R-SQUARED SPACING: 0.0625
Info: NONBONDED TABLE SIZE: 705 POINTS
TCL: Setting parameter alchLambda2 to 0.6999999999999997
Info: NONBONDED TABLE R-SQUARED SPACING: 0.0625
Info: NONBONDED TABLE SIZE: 705 POINTS
TCL: Running for 1500000 steps
ETITLE: TS BOND ANGLE DIHED IMPRP ELECT VDW BOUNDARY MISC KINETIC TOTAL TEMP POTENTIAL TOTALAVG TEMPAVG PRESSURE GPRESSURE VOLUME PRESSAVG GPRESSAVG
ENERGY: 0 1.5256 9.2116 4.4970 0.0000 -10639.4925 1423.0876 0.0000 0.0000 1785.9191 -7415.2517 304.7009 -9201.1707 -7415.2517 304.7009 -328.4985 -256.5553 30676.5476 -328.4985 -256.5553
ENERGY: 300000 1.7622 13.2988 5.6586 0.0000 -10619.0401 1432.5148 0.0000 0.0000 1759.9123 -7405.8934 300.2638 -9165.8057 -7411.0188 302.9269 143.8105 141.1094 30275.2680 -138.8616 -94.9936
ENERGY: 600000 3.0554 14.0684 3.4817 0.0000 -10585.9151 1381.6579 0.0000 0.0000 1763.7819 -7419.8699 300.9240 -9183.6518 -7400.1694 302.6554 -648.8412 -548.8321 31122.5423 -291.8811 -234.6700
ENERGY: 900000 1.5734 12.0268 8.7030 0.0000 -10514.8296 1407.4611 0.0000 0.0000 1774.7559 -7310.3096 302.7963 -9085.0654 -7380.1195 302.9981 36.6483 104.7652 30592.2041 -258.1744 -202.1813
ENERGY: 1200000 2.4793 13.1618 4.9926 0.0000 -10627.7563 1412.0698 0.0000 0.0000 1773.3148 -7421.7381 302.5505 -9195.0528 -7395.1454 302.2756 13.7056 56.8081 30111.0696 -161.6452 -101.4712
ENERGY: 1500000 2.2076 15.4328 5.3150 0.0000 -10545.8892 1364.7069 0.0000 0.0000 1769.9869 -7388.2400 301.9827 -9158.2270 -7397.3277 301.9866 -311.7260 -304.3757 30127.4002 -110.4657 -51.3296
TCL: Running FEP window   7: Lambda1 0.6999999999999997 Lambda2 0.6499999999999997 [dLambda -0.050000000000000044]
TCL: Setting parameter firsttimestep to 0
TCL: Setting parameter alchLambda to 0.6999999999999997
Info: NONBONDED TABLE R-SQUARED SPACING: 0.0625
Info: NONBONDED TABLE SIZE: 705 POINTS
TCL: Setting parameter alchLambda2 to 0.6499999999999997
Info: NONBONDED TABLE R-SQUARED SPACING: 0.0625
Info: NONBONDED TABLE SIZE: 705 POINTS
TCL: Running for 1500000 steps
ETITLE: TS BOND ANGLE DIHED IMPRP ELECT VDW BOUNDARY MISC KINETIC TOTAL TEMP POTENTIAL TOTALAVG TEMPAVG PRESSURE GPRESSURE VOLUME PRESSAVG GPRESSAVG
ENERGY: 0 2.2076 15.4328 5.3150 0.0000 -10545.9082 1364.9732 0.0000 0.0000 1769.1458 -7388.8338 301.8392 -9157.9797 -7388.8338 301.8392 -396.4978 -312.6413 30127.4002 -396.4978 -312.6413
ENERGY: 300000 1.0602 13.9094 7.4733 0.0000 -10640.0552 1369.8581 0.0000 0.0000 1744.6858 -7503.0683 297.6660 -9247.7542 -7417.7510 302.3427 -640.3193 -611.8450 30316.1051 -1.5598 65.2081
ENERGY: 600000 3.7080 14.5763 4.4414 0.0000 -10551.5305 1365.3591 0.0000 0.0000 1746.0805 -7417.3651 297.9039 -9163.4457 -7416.1073 300.7406 -750.2571 -687.2551 30623.6065 -18.0901 57.9197
ENERGY: 900000 1.3882 17.3814 5.8811 0.0000 -10615.7127 1429.6040 0.0000 0.0000 1756.2788 -7405.1792 299.6439 -9161.4580 -7414.2572 299.8837 123.8199 112.9868 30149.2429 -9.2387 49.4634
ENERGY: 1200000 2.2113 15.4350 5.7206 0.0000 -10706.4006 1452.7279 0.0000 0.0000 1790.5290 -7439.7767 305.4874 -9230.3057 -7409.6350 300.8344 -46.6461 49.0378 30085.0266 36.5850 95.8002
ENERGY: 1500000 4.4416 10.2092 5.7467 0.0000 -10502.3612 1375.4074 0.0000 0.0000 1795.1649 -7311.3913 306.2784 -9106.5562 -7403.0922 300.2275 -327.3655 -286.2084 30327.7648 -24.7081 39.3761
TCL: Running FEP window   8: Lambda1 0.6499999999999997 Lambda2 0.5999999999999996 [dLambda -0.050000000000000044]
TCL: Setting parameter firsttimestep to 0
TCL: Setting parameter alchLambda to 0.6499999999999997
Info: NONBONDED TABLE R-SQUARED SPACING: 0.0625
Info: NONBONDED TABLE SIZE: 705 POINTS
TCL: Setting parameter alchLambda2 to 0.5999999999999996
Info: NONBONDED TABLE R-SQUARED SPACING: 0.0625
Info: NONBONDED TABLE SIZE: 705 POINTS
TCL: Running for 1500000 steps
ETITLE: TS BOND ANGLE DIHED IMPRP ELECT VDW BOUNDARY MISC KINETIC TOTAL TEMP POTENTIAL TOTALAVG TEMPAVG PRESSURE GPRESSURE VOLUME PRESSAVG GPRESSAVG
ENERGY: 0 4.4416 10.2092 5.7467 0.0000 -10502.3992 1375.2780 0.0000 0.0000 1794.3161 -7312.4077 306.1336 -9106.7238 -7312.4077 306.1336 -371.4053 -301.5998 30327.7648 -371.4053 -301.5998
ENERGY: 300000 1.1776 14.0229 5.8795 0.0000 -10630.5011 1406.9932 0.0000 0.0000 1703.5331 -7498.8947 290.6448 -9202.4278 -7405.9726 297.4269 -537.2735 -415.2965 30549.2817 -491.1381 -393.2151
ENERGY: 600000 2.3151 14.4229 5.7237 0.0000 -10638.4786 1447.4114 0.0000 0.0000 1732.4116 -7436.1939 295.5718 -9168.6055 -7426.4948 296.8751 233.6986 306.4349 29947.6884 -369.7152 -280.7232
ENERGY: 900000 2.0817 14.0214 6.6103 0.0000 -10503.0802 1342.9738 0.0000 0.0000 1745.9181 -7391.4749 297.8762 -9137.3930 -7417.1330 296.8993 -269.4713 -231.0526 29766.6707 -305.7409 -236.5717
ENERGY: 1200000 1.3252 18.1157 6.3236 0.0000 -10586.3830 1425.5776 0.0000 0.0000 1771.0739 -7363.9671 302.1681 -9135.0409 -7423.6354 296.8283 69.2023 89.3744 30544.8521 -121.0341 -60.6701
ENERGY: 1500000 2.6870 17.5334 5.9760 0.0000 -10599.6710 1389.6261 0.0000 0.0000 1709.3481 -7474.5004 291.6369 -9183.8485 -7426.5136 296.5391 -389.1656 -358.9164 30224.9949 -180.1417 -121.6252
TCL: Running FEP window   9: Lambda1 0.5999999999999996 Lambda2 0.5499999999999996 [dLambda -0.050000000000000044]
TCL: Setting parameter firsttimestep to 0
TCL: Setting parameter alchLambda to 0.5999999999999996
Info: NONBONDED TABLE R-SQUARED SPACING: 0.0625
Info: NONBONDED TABLE SIZE: 705 POINTS
TCL: Setting parameter alchLambda2 to 0.5499999999999996
Info: NONBONDED TABLE R-SQUARED SPACING: 0.0625
Info: NONBONDED TABLE SIZE: 705 POINTS
TCL: Running for 1500000 steps
ETITLE: TS BOND ANGLE DIHED IMPRP ELECT VDW BOUNDARY MISC KINETIC TOTAL TEMP POTENTIAL TOTALAVG TEMPAVG PRESSURE GPRESSURE VOLUME PRESSAVG GPRESSAVG
ENERGY: 0 2.6870 17.5333 5.9760 0.0000 -10599.6799 1389.8342 0.0000 0.0000 1708.4878 -7475.1615 291.4901 -9183.6494 -7475.1615 291.4901 -453.1173 -370.0579 30224.9949 -453.1173 -370.0579
ENERGY: 300000 2.8705 14.0178 3.7393 0.0000 -10471.4184 1371.6712 0.0000 0.0000 1757.1077 -7322.0119 299.7853 -9079.1196 -7400.2155 298.4127 -448.5375 -412.6035 30716.8652 -186.5586 -124.3640
ENERGY: 600000 2.4647 8.7850 6.1003 0.0000 -10671.2312 1469.0831 0.0000 0.0000 1776.1161 -7408.6820 303.0284 -9184.7981 -7398.6433 298.6161 312.6487 387.7266 30096.5224 -47.5452 9.8085
ENERGY: 900000 6.5684 16.2304 6.2846 0.0000 -10586.1007 1478.9914 0.0000 0.0000 1765.1272 -7312.8987 301.1536 -9078.0259 -7398.8494 298.1113 455.9531 516.5379 30201.4739 0.6447 56.9114
ENERGY: 1200000 2.5071 11.9736 4.7322 0.0000 -10633.5906 1450.1712 0.0000 0.0000 1760.7601 -7403.4464 300.4085 -9164.2065 -7396.2992 298.5885 359.6302 392.4685 29729.3198 -51.7866 1.2940
ENERGY: 1500000 0.7014 13.2589 4.5073 0.0000 -10655.3648 1484.5614 0.0000 0.0000 1769.7674 -7382.5683 301.9452 -9152.3357 -7398.8374 298.7789 539.4692 543.7997 30327.7281 18.5381 68.1536
TCL: Running FEP window  10: Lambda1 0.5499999999999996 Lambda2 0.4999999999999996 [dLambda -0.04999999999999999]
TCL: Setting parameter firsttimestep to 0
TCL: Setting parameter alchLambda to 0.5499999999999996
Info: NONBONDED TABLE R-SQUARED SPACING: 0.0625
Info: NONBONDED TABLE SIZE: 705 POINTS
TCL: Setting parameter alchLambda2 to 0.4999999999999996
Info: NONBONDED TABLE R-SQUARED SPACING: 0.0625
Info: NONBONDED TABLE SIZE: 705 POINTS
TCL: Running for 1500000 steps
ETITLE: TS BOND ANGLE DIHED IMPRP ELECT VDW BOUNDARY MISC KINETIC TOTAL TEMP POTENTIAL TOTALAVG TEMPAVG PRESSURE GPRESSURE VOLUME PRESSAVG GPRESSAVG
ENERGY: 0 0.7014 13.2589 4.5073 0.0000 -10655.3384 1484.9064 0.0000 0.0000 1768.8841 -7383.0802 301.7945 -9151.9643 -7383.0802 301.7945 456.7963 535.8771 30327.7281 456.7963 535.8771
ENERGY: 300000 1.6932 19.8928 4.3681 0.0000 -10494.9828 1298.6726 0.0000 0.0000 1756.1449 -7414.2111 299.6211 -9170.3561 -7431.9721 297.8165 -1002.2565 -1012.9879 30318.1122 79.5133 124.6346
ENERGY: 600000 1.7490 13.2364 4.7797 0.0000 -10483.5769 1377.7487 0.0000 0.0000 1740.3157 -7345.7473 296.9204 -9086.0631 -7436.6877 298.3078 -49.0074 36.8082 29896.4109 -118.1780 -60.4257
ENERGY: 900000 5.2368 13.6594 3.2835 0.0000 -10662.9344 1409.5729 0.0000 0.0000 1784.8042 -7446.3776 304.5107 -9231.1818 -7426.8440 299.8904 -696.4523 -614.4909 30620.3807 -134.8840 -65.0349
ENERGY: 1200000 1.7292 12.1234 5.8163 0.0000 -10659.7538 1479.3401 0.0000 0.0000 1797.2405 -7363.5043 306.6325 -9160.7448 -7410.0509 300.9232 313.3976 327.7614 30455.9371 -75.6825 -9.8278
ENERGY: 1500000 2.4584 16.2161 3.9002 0.0000 -10697.9100 1455.5295 0.0000 0.0000 1766.5000 -7453.3057 301.3878 -9219.8057 -7406.8307 300.5415 113.9390 167.1888 30272.2497 -125.7931 -65.5547
TCL: Running FEP window  11: Lambda1 0.4999999999999996 Lambda2 0.4499999999999996 [dLambda -0.04999999999999999]
TCL: Setting parameter firsttimestep to 0
TCL: Setting parameter alchLambda to 0.4999999999999996
Info: NONBONDED TABLE R-SQUARED SPACING: 0.0625
Info: NONBONDED TABLE SIZE: 705 POINTS
TCL: Setting parameter alchLambda2 to 0.4499999999999996
Info: NONBONDED TABLE R-SQUARED SPACING: 0.0625
Info: NONBONDED TABLE SIZE: 705 POINTS
TCL: Running for 1500000 steps
ETITLE: TS BOND ANGLE DIHED IMPRP ELECT VDW BOUNDARY MISC KINETIC TOTAL TEMP POTENTIAL TOTALAVG TEMPAVG PRESSURE GPRESSURE VOLUME PRESSAVG GPRESSAVG
ENERGY: 0 2.4584 16.2161 3.9002 0.0000 -10697.9133 1456.1768 0.0000 0.0000 1765.6167 -7453.5451 301.2371 -9219.1617 -7453.5451 301.2371 90.8416 167.5844 30272.2497 90.8416 167.5844
ENERGY: 300000 1.4507 9.5308 5.9361 0.0000 -10540.7734 1386.4288 0.0000 0.0000 1806.9757 -7330.4514 308.2934 -9137.4270 -7415.8657 300.5745 -14.6307 72.0799 29806.6601 28.6444 100.8021
ENERGY: 600000 3.5112 14.0624 6.7562 0.0000 -10624.4059 1391.6396 0.0000 0.0000 1757.0822 -7451.3542 299.7810 -9208.4364 -7425.9738 300.9530 -527.1141 -473.2730 30900.9557 -121.3950 -54.1368
ENERGY: 900000 4.1506 13.5015 7.3534 0.0000 -10618.1995 1411.6212 0.0000 0.0000 1816.9797 -7364.5931 310.0003 -9181.5727 -7423.7230 301.3285 -239.6087 -225.2283 30371.8548 -84.7837 -30.9094
ENERGY: 1200000 4.2899 14.2905 5.8288 0.0000 -10541.9143 1374.7999 0.0000 0.0000 1743.1350 -7399.5702 297.4014 -9142.7053 -7416.8994 300.5646 -312.2202 -223.6754 30024.3586 -107.3293 -46.9614
ENERGY: 1500000 7.2185 13.9634 4.7741 0.0000 -10621.6013 1449.0948 0.0000 0.0000 1756.1770 -7390.3734 299.6265 -9146.5505 -7411.2526 301.2784 128.0199 212.9598 29860.5060 -68.3550 -7.3017
TCL: Running FEP window  12: Lambda1 0.4499999999999996 Lambda2 0.39999999999999963 [dLambda -0.04999999999999999]
TCL: Setting parameter firsttimestep to 0
TCL: Setting parameter alchLambda to 0.4499999999999996
Info: NONBONDED TABLE R-SQUARED SPACING: 0.0625
Info: NONBONDED TABLE SIZE: 705 POINTS
TCL: Setting parameter alchLambda2 to 0.39999999999999963
Info: NONBONDED TABLE R-SQUARED SPACING: 0.0625
Info: NONBONDED TABLE SIZE: 705 POINTS
TCL: Running for 1500000 steps
ETITLE: TS BOND ANGLE DIHED IMPRP ELECT VDW BOUNDARY MISC KINETIC TOTAL TEMP POTENTIAL TOTALAVG TEMPAVG PRESSURE GPRESSURE VOLUME PRESSAVG GPRESSAVG
ENERGY: 0 7.2185 13.9634 4.7741 0.0000 -10621.6000 1449.2957 0.0000 0.0000 1755.2986 -7391.0496 299.4767 -9146.3482 -7391.0496 299.4767 114.0743 206.8113 29860.5060 114.0743 206.8113
ENERGY: 300000 3.9886 19.1264 4.7950 0.0000 -10634.1322 1504.0173 0.0000 0.0000 1800.9389 -7301.2659 307.2635 -9102.2048 -7364.4463 304.3387 913.0608 1046.8743 29940.0166 493.0934 602.0761
ENERGY: 600000 1.7223 11.2065 4.0045 0.0000 -10481.2481 1417.3507 0.0000 0.0000 1745.8025 -7301.1616 297.8565 -9046.9641 -7360.4866 302.1700 396.2676 530.6452 30155.6501 288.7437 391.9335
ENERGY: 900000 2.6769 20.3137 5.2290 0.0000 -10674.6437 1431.7729 0.0000 0.0000 1764.8248 -7449.8263 301.1020 -9214.6512 -7380.9348 301.7916 -220.8425 -124.5923 29904.5349 168.5783 260.7365
ENERGY: 1200000 5.4271 10.8661 4.4432 0.0000 -10492.4346 1390.5798 0.0000 0.0000 1766.9646 -7314.1539 301.4670 -9081.1185 -7375.1373 301.7335 -3.8583 57.6866 30075.6571 130.5210 216.3178
ENERGY: 1500000 2.4465 8.0026 5.4897 0.0000 -10722.2537 1441.2914 0.0000 0.0000 1718.9980 -7546.0254 293.2833 -9265.0234 -7382.8956 301.2825 -229.7855 -176.6408 30115.9291 105.6365 190.2002
TCL: Running FEP window  13: Lambda1 0.39999999999999963 Lambda2 0.34999999999999964 [dLambda -0.04999999999999999]
TCL: Setting parameter firsttimestep to 0
TCL: Setting parameter alchLambda to 0.39999999999999963
Info: NONBONDED TABLE R-SQUARED SPACING: 0.0625
Info: NONBONDED TABLE SIZE: 705 POINTS
TCL: Setting parameter alchLambda2 to 0.34999999999999964
Info: NONBONDED TABLE R-SQUARED SPACING: 0.0625
Info: NONBONDED TABLE SIZE: 705 POINTS
TCL: Running for 1500000 steps
ETITLE: TS BOND ANGLE DIHED IMPRP ELECT VDW BOUNDARY MISC KINETIC TOTAL TEMP POTENTIAL TOTALAVG TEMPAVG PRESSURE GPRESSURE VOLUME PRESSAVG GPRESSAVG
ENERGY: 0 2.4466 8.0026 5.4897 0.0000 -10722.2552 1441.6735 0.0000 0.0000 1718.1554 -7546.4874 293.1396 -9264.6428 -7546.4874 293.1396 -294.2906 -185.8702 30115.9291 -294.2906 -185.8702
ENERGY: 300000 2.6757 12.0978 4.9727 0.0000 -10530.0155 1402.5778 0.0000 0.0000 1782.5000 -7325.1915 304.1176 -9107.6914 -7418.1425 300.5384 -147.5280 -48.2358 30318.2867 -271.4418 -170.1359
ENERGY: 600000 1.9951 9.8808 5.5019 0.0000 -10480.0673 1325.6625 0.0000 0.0000 1728.6319 -7408.3951 294.9270 -9137.0270 -7430.8467 299.6684 -1051.8966 -919.7192 30758.6453 -411.3750 -319.8680
ENERGY: 900000 0.8707 10.5709 4.9320 0.0000 -10666.6230 1500.7554 0.0000 0.0000 1769.8681 -7379.6258 301.9624 -9149.4939 -7420.6992 299.7994 782.5107 838.2187 29911.8578 -269.1606 -186.3494
ENERGY: 1200000 4.6188 11.7906 5.8938 0.0000 -10762.4887 1502.5605 0.0000 0.0000 1807.5646 -7430.0603 308.3939 -9237.6249 -7411.2777 301.0678 387.1221 474.5421 29801.4929 -247.8676 -169.2949
ENERGY: 1500000 5.3002 12.2361 4.9390 0.0000 -10724.0236 1443.2798 0.0000 0.0000 1770.5429 -7487.7255 302.0775 -9258.2684 -7410.0512 301.2033 -176.2441 -150.4247 30138.2807 -194.5209 -126.2079
TCL: Running FEP window  14: Lambda1 0.34999999999999964 Lambda2 0.29999999999999966 [dLambda -0.04999999999999999]
TCL: Setting parameter firsttimestep to 0
TCL: Setting parameter alchLambda to 0.34999999999999964
Info: NONBONDED TABLE R-SQUARED SPACING: 0.0625
Info: NONBONDED TABLE SIZE: 705 POINTS
TCL: Setting parameter alchLambda2 to 0.29999999999999966
Info: NONBONDED TABLE R-SQUARED SPACING: 0.0625
Info: NONBONDED TABLE SIZE: 705 POINTS
TCL: Running for 1500000 steps
ETITLE: TS BOND ANGLE DIHED IMPRP ELECT VDW BOUNDARY MISC KINETIC TOTAL TEMP POTENTIAL TOTALAVG TEMPAVG PRESSURE GPRESSURE VOLUME PRESSAVG GPRESSAVG
ENERGY: 0 5.3002 12.2361 4.9390 0.0000 -10724.0216 1443.4734 0.0000 0.0000 1769.6758 -7488.3970 301.9296 -9258.0728 -7488.3970 301.9296 -221.2799 -153.7259 30138.2807 -221.2799 -153.7259
ENERGY: 300000 2.4477 13.3827 4.6311 0.0000 -10586.9256 1419.0857 0.0000 0.0000 1767.9506 -7379.4278 301.6353 -9147.3785 -7372.7383 304.3284 196.8862 260.6718 29748.4216 272.0947 334.0362
ENERGY: 600000 1.0134 8.2833 5.7563 0.0000 -10648.9602 1464.8290 0.0000 0.0000 1690.2096 -7478.8686 288.3716 -9169.0782 -7387.8416 301.6363 238.7901 334.0060 30190.5534 81.7058 137.2855
ENERGY: 900000 1.7889 13.1934 4.3510 0.0000 -10631.7103 1455.5653 0.0000 0.0000 1757.4667 -7399.3451 299.8466 -9156.8118 -7399.1988 300.3919 203.6957 312.7360 29947.3778 125.5770 181.1440
ENERGY: 1200000 2.5076 11.7959 4.3590 0.0000 -10564.6715 1403.9987 0.0000 0.0000 1806.0717 -7335.9385 308.1392 -9142.0102 -7391.4457 301.2674 -71.3047 -0.8091 30164.3067 90.4487 145.8994
ENERGY: 1500000 2.5039 11.4282 3.4055 0.0000 -10617.1816 1431.9830 0.0000 0.0000 1771.5395 -7396.3214 302.2476 -9167.8610 -7380.1716 302.5714 -113.3596 -33.5893 30372.1464 83.5630 141.6578
TCL: Running FEP window  15: Lambda1 0.29999999999999966 Lambda2 0.24999999999999967 [dLambda -0.04999999999999999]
TCL: Setting parameter firsttimestep to 0
TCL: Setting parameter alchLambda to 0.29999999999999966
Info: NONBONDED TABLE R-SQUARED SPACING: 0.0625
Info: NONBONDED TABLE SIZE: 705 POINTS
TCL: Setting parameter alchLambda2 to 0.24999999999999967
Info: NONBONDED TABLE R-SQUARED SPACING: 0.0625
Info: NONBONDED TABLE SIZE: 705 POINTS
TCL: Running for 1500000 steps
ETITLE: TS BOND ANGLE DIHED IMPRP ELECT VDW BOUNDARY MISC KINETIC TOTAL TEMP POTENTIAL TOTALAVG TEMPAVG PRESSURE GPRESSURE VOLUME PRESSAVG GPRESSAVG
ENERGY: 0 2.5039 11.4282 3.4055 0.0000 -10617.1828 1432.3522 0.0000 0.0000 1770.6480 -7396.8450 302.0955 -9167.4930 -7396.8450 302.0955 -123.5875 -39.3154 30372.1464 -123.5875 -39.3154
ENERGY: 300000 2.5327 9.9286 5.9304 0.0000 -10549.1321 1406.5166 0.0000 0.0000 1803.7849 -7320.4389 307.7491 -9124.2238 -7367.9893 303.0655 -70.9585 -2.7310 30250.8233 -27.4427 29.1253
ENERGY: 600000 3.0486 11.3254 7.8751 0.0000 -10660.8199 1481.1012 0.0000 0.0000 1751.9223 -7405.5473 298.9006 -9157.4696 -7397.9021 299.8961 95.9735 172.6083 30501.3164 -76.8076 -17.7927
ENERGY: 900000 0.6254 12.9960 4.9807 0.0000 -10701.2159 1449.9926 0.0000 0.0000 1774.1353 -7458.4859 302.6905 -9232.6212 -7400.1248 300.4753 1.6240 75.5315 30301.6166 -132.3423 -81.4746
ENERGY: 1200000 3.4156 20.2284 6.0580 0.0000 -10567.2380 1427.4248 0.0000 0.0000 1743.0208 -7367.0905 297.3819 -9110.1112 -7395.1126 300.8415 264.1882 266.8098 30206.7617 -43.7041 9.6244
ENERGY: 1500000 4.1667 12.9265 5.7535 0.0000 -10442.9029 1322.1646 0.0000 0.0000 1725.6931 -7372.1985 294.4256 -9097.8917 -7398.9225 300.0465 -856.9248 -788.0130 30173.5669 -53.0327 2.4817
TCL: Running FEP window  16: Lambda1 0.24999999999999967 Lambda2 0.19999999999999968 [dLambda -0.04999999999999999]
TCL: Setting parameter firsttimestep to 0
TCL: Setting parameter alchLambda to 0.24999999999999967
Info: NONBONDED TABLE R-SQUARED SPACING: 0.0625
Info: NONBONDED TABLE SIZE: 705 POINTS
TCL: Setting parameter alchLambda2 to 0.19999999999999968
Info: NONBONDED TABLE R-SQUARED SPACING: 0.0625
Info: NONBONDED TABLE SIZE: 705 POINTS
TCL: Running for 1500000 steps
ETITLE: TS BOND ANGLE DIHED IMPRP ELECT VDW BOUNDARY MISC KINETIC TOTAL TEMP POTENTIAL TOTALAVG TEMPAVG PRESSURE GPRESSURE VOLUME PRESSAVG GPRESSAVG
ENERGY: 0 4.1667 12.9265 5.7535 0.0000 -10442.9036 1322.2226 0.0000 0.0000 1724.8612 -7372.9732 294.2837 -9097.8344 -7372.9732 294.2837 -867.4082 -794.9041 30173.5669 -867.4082 -794.9041
ENERGY: 300000 3.4386 16.7415 4.9917 0.0000 -10571.5129 1380.1924 0.0000 0.0000 1741.1714 -7424.9773 297.0664 -9166.1488 -7419.6838 298.9127 -700.4782 -670.0143 30990.4837 -514.4512 -436.6218
ENERGY: 600000 1.4022 12.0818 3.2330 0.0000 -10640.3194 1442.0047 0.0000 0.0000 1768.1240 -7413.4737 301.6648 -9181.5977 -7409.0954 299.1380 -299.7430 -203.7237 30911.7915 -277.3462 -192.4472
ENERGY: 900000 2.9341 14.3026 3.7498 0.0000 -10556.8213 1375.5528 0.0000 0.0000 1791.0888 -7369.1931 305.5829 -9160.2819 -7389.5278 302.0978 -382.0102 -272.1163 30018.8492 -310.8191 -221.1589
ENERGY: 1200000 1.7614 12.3565 6.0690 0.0000 -10680.8492 1519.2464 0.0000 0.0000 1783.6937 -7357.7222 304.3212 -9141.4159 -7398.7224 301.5172 825.8073 887.2456 30279.0646 -103.3335 -15.8064
ENERGY: 1500000 1.4923 11.6977 5.0355 0.0000 -10623.8437 1473.3401 0.0000 0.0000 1812.9474 -7319.3308 309.3123 -9132.2782 -7397.8700 301.7897 539.4978 575.6085 30312.6600 -90.4092 -7.2054
TCL: Running FEP window  17: Lambda1 0.19999999999999968 Lambda2 0.1499999999999997 [dLambda -0.04999999999999999]
TCL: Setting parameter firsttimestep to 0
TCL: Setting parameter alchLambda to 0.19999999999999968
Info: NONBONDED TABLE R-SQUARED SPACING: 0.0625
Info: NONBONDED TABLE SIZE: 705 POINTS
TCL: Setting parameter alchLambda2 to 0.1499999999999997
Info: NONBONDED TABLE R-SQUARED SPACING: 0.0625
Info: NONBONDED TABLE SIZE: 705 POINTS
TCL: Running for 1500000 steps
ETITLE: TS BOND ANGLE DIHED IMPRP ELECT VDW BOUNDARY MISC KINETIC TOTAL TEMP POTENTIAL TOTALAVG TEMPAVG PRESSURE GPRESSURE VOLUME PRESSAVG GPRESSAVG
ENERGY: 0 1.4923 11.6977 5.0355 0.0000 -10623.8429 1473.5772 0.0000 0.0000 1812.0443 -7319.9960 309.1582 -9132.0403 -7319.9960 309.1582 494.7979 574.1432 30312.6600 494.7979 574.1432
ENERGY: 300000 4.7007 12.3127 7.4672 0.0000 -10597.7738 1375.4320 0.0000 0.0000 1766.0226 -7431.8386 301.3063 -9197.8612 -7409.2647 303.0869 -559.0504 -543.8029 30242.5564 -219.9954 -177.8814
ENERGY: 600000 1.8752 10.4730 4.8324 0.0000 -10630.4055 1401.9058 0.0000 0.0000 1764.2277 -7447.0914 301.0001 -9211.3191 -7397.7189 302.9117 -671.5610 -629.4518 30541.1893 -202.3528 -136.5820
ENERGY: 900000 3.7788 14.4866 3.4348 0.0000 -10502.5784 1360.4464 0.0000 0.0000 1825.8258 -7294.6060 311.5095 -9120.4319 -7386.1982 303.1328 -438.3183 -372.9533 30447.2997 -262.6081 -194.7555
ENERGY: 1200000 1.7408 11.1563 5.1943 0.0000 -10528.0777 1429.2185 0.0000 0.0000 1765.3998 -7315.3679 301.2001 -9080.7677 -7392.7355 301.5137 211.2571 289.5022 29984.2359 -195.9728 -124.4020
ENERGY: 1500000 2.3326 12.1585 6.1780 0.0000 -10629.3998 1431.0256 0.0000 0.0000 1709.3912 -7468.3138 291.6443 -9177.7050 -7398.5791 301.8276 19.7625 81.4631 29736.5250 -156.2538 -82.7185
TCL: Running FEP window  18: Lambda1 0.1499999999999997 Lambda2 0.09999999999999969 [dLambda -0.05 ]
TCL: Setting parameter firsttimestep to 0
TCL: Setting parameter alchLambda to 0.1499999999999997
Info: NONBONDED TABLE R-SQUARED SPACING: 0.0625
Info: NONBONDED TABLE SIZE: 705 POINTS
TCL: Setting parameter alchLambda2 to 0.09999999999999969
Info: NONBONDED TABLE R-SQUARED SPACING: 0.0625
Info: NONBONDED TABLE SIZE: 705 POINTS
TCL: Running for 1500000 steps
ETITLE: TS BOND ANGLE DIHED IMPRP ELECT VDW BOUNDARY MISC KINETIC TOTAL TEMP POTENTIAL TOTALAVG TEMPAVG PRESSURE GPRESSURE VOLUME PRESSAVG GPRESSAVG
ENERGY: 0 2.3326 12.1585 6.1780 0.0000 -10629.3997 1431.5582 0.0000 0.0000 1708.5377 -7468.6347 291.4987 -9177.1724 -7468.6347 291.4987 -0.4694 76.3154 29736.5250 -0.4694 76.3154
ENERGY: 300000 0.7344 14.8922 4.3381 0.0000 -10594.3098 1426.6609 0.0000 0.0000 1806.3378 -7341.3464 308.1846 -9147.6842 -7393.1418 300.3987 79.9473 140.3647 29836.3582 456.7035 521.0139
ENERGY: 600000 0.7715 15.4970 5.6239 0.0000 -10657.5312 1434.2360 0.0000 0.0000 1754.2401 -7447.1628 299.2961 -9201.4029 -7408.1692 301.3165 248.7768 352.7714 29418.9448 218.4067 287.8051
ENERGY: 900000 3.7134 14.9099 3.3024 0.0000 -10784.0507 1559.6490 0.0000 0.0000 1766.4830 -7435.9929 301.3849 -9202.4759 -7423.2943 300.4268 774.1769 851.3250 30190.9444 255.5399 319.9347
ENERGY: 1200000 4.0354 13.7978 5.7492 0.0000 -10829.1036 1540.7430 0.0000 0.0000 1729.0788 -7535.6994 295.0032 -9264.7782 -7430.7173 299.0682 476.1714 505.9572 29877.4743 146.8326 206.7544
ENERGY: 1500000 0.9677 19.2568 4.8395 0.0000 -10623.1161 1437.1234 0.0000 0.0000 1726.7904 -7434.1383 294.6128 -9160.9287 -7427.3963 299.0671 4.5097 71.7635 30029.2142 230.0795 289.6189
TCL: Running FEP window  19: Lambda1 0.09999999999999969 Lambda2 0.049999999999999684 [dLambda -0.05 ]
TCL: Setting parameter firsttimestep to 0
TCL: Setting parameter alchLambda to 0.09999999999999969
Info: NONBONDED TABLE R-SQUARED SPACING: 0.0625
Info: NONBONDED TABLE SIZE: 705 POINTS
TCL: Setting parameter alchLambda2 to 0.049999999999999684
Info: NONBONDED TABLE R-SQUARED SPACING: 0.0625
Info: NONBONDED TABLE SIZE: 705 POINTS
TCL: Running for 1500000 steps
ETITLE: TS BOND ANGLE DIHED IMPRP ELECT VDW BOUNDARY MISC KINETIC TOTAL TEMP POTENTIAL TOTALAVG TEMPAVG PRESSURE GPRESSURE VOLUME PRESSAVG GPRESSAVG
ENERGY: 0 0.9677 19.2568 4.8395 0.0000 -10623.1145 1436.9374 0.0000 0.0000 1725.9402 -7435.1730 294.4677 -9161.1132 -7435.1730 294.4677 -6.1860 68.0912 30029.2142 -6.1860 68.0912
ENERGY: 300000 1.4657 13.6795 5.0846 0.0000 -10585.7318 1454.8548 0.0000 0.0000 1748.0434 -7362.6037 298.2388 -9110.6471 -7365.7597 297.7356 -16.5933 70.5076 30312.3946 -295.7245 -246.8143
ENERGY: 600000 3.5053 17.0104 7.2852 0.0000 -10647.1977 1419.2752 0.0000 0.0000 1781.3483 -7418.7733 303.9211 -9200.1216 -7389.3184 300.1623 -184.2507 -83.6604 29910.0598 -156.9831 -95.5604
ENERGY: 900000 2.7613 17.1074 5.9256 0.0000 -10659.9004 1457.3660 0.0000 0.0000 1769.7859 -7406.9542 301.9484 -9176.7401 -7382.4982 301.4941 32.9883 107.4362 29939.5462 23.0890 79.2517
ENERGY: 1200000 1.1651 13.3119 6.3393 0.0000 -10681.5058 1457.9110 0.0000 0.0000 1818.1912 -7384.5873 310.2070 -9202.7785 -7395.2669 300.8121 133.1037 198.4410 29937.4869 12.2591 64.0207
ENERGY: 1500000 2.2499 15.2145 5.2671 0.0000 -10586.7802 1467.8023 0.0000 0.0000 1766.2928 -7329.9535 301.3524 -9096.2463 -7385.4920 300.7563 560.0872 642.9940 29807.8504 -43.0853 11.4089
TCL: Running FEP window  20: Lambda1 0.049999999999999684 Lambda2 0.0    [dLambda -0.049999999999999684]
TCL: Setting parameter firsttimestep to 0
TCL: Setting parameter alchLambda to 0.049999999999999684
Info: NONBONDED TABLE R-SQUARED SPACING: 0.0625
Info: NONBONDED TABLE SIZE: 705 POINTS
TCL: Setting parameter alchLambda2 to 0.0
Info: NONBONDED TABLE R-SQUARED SPACING: 0.0625
Info: NONBONDED TABLE SIZE: 705 POINTS
TCL: Running for 1500000 steps
ETITLE: TS BOND ANGLE DIHED IMPRP ELECT VDW BOUNDARY MISC KINETIC TOTAL TEMP POTENTIAL TOTALAVG TEMPAVG PRESSURE GPRESSURE VOLUME PRESSAVG GPRESSAVG
ENERGY: 0 2.2499 15.2145 5.2671 0.0000 -10586.7782 1467.5396 0.0000 0.0000 1765.3913 -7331.1157 301.1986 -9096.5070 -7331.1157 301.1986 563.6001 637.6994 29807.8504 563.6001 637.6994
ENERGY: 300000 1.9426 15.1043 3.6510 0.0000 -10613.0383 1414.5909 0.0000 0.0000 1753.7281 -7424.0215 299.2087 -9177.7496 -7370.1076 298.0318 -284.3787 -265.6477 30349.4544 161.7006 256.4544
ENERGY: 600000 2.8163 11.8705 3.8997 0.0000 -10812.1054 1556.5659 0.0000 0.0000 1768.5967 -7468.3564 301.7455 -9236.9531 -7384.3127 299.9315 625.2851 725.5112 30036.0877 145.6143 233.4973
ENERGY: 900000 2.2701 9.7260 5.3597 0.0000 -10610.6035 1416.6480 0.0000 0.0000 1720.9813 -7455.6183 293.6217 -9176.5997 -7400.3277 299.1292 -484.2482 -345.3819 30301.7369 -23.1067 61.3294
ENERGY: 1200000 1.0754 19.1776 5.6256 0.0000 -10722.6596 1465.9712 0.0000 0.0000 1757.2555 -7473.5543 299.8105 -9230.8098 -7390.3119 300.2282 501.3468 506.2393 29206.9382 3.4368 70.4610
ENERGY: 1500000 2.4707 13.5956 4.1369 0.0000 -10552.7098 1391.9398 0.0000 0.0000 1782.1540 -7358.4127 304.0586 -9140.5668 -7401.2233 299.7318 -203.0243 -182.0272 30208.4285 14.6028 76.9299
TCL: Exiting due to exit command.
