Info: SIMULATION PARAMETERS:
Info: TIMESTEP               2
Info: NUMBER OF STEPS        0
Info: STEPS PER CYCLE        10
Info: PERIODIC CELL BASIS 1  32.2663 0 0
Info: PERIODIC CELL BASIS 2  0 30.5944 0
Info: PERIODIC CELL BASIS 3  0 0 30.8034
Info: PERIODIC CELL CENTER   0 0 0
Info: WRAPPING WATERS AROUND PERIODIC BOUNDARIES ON OUTPUT.
Info: WRAPPING ALL CLUSTERS AROUND PERIODIC BOUNDARIES ON OUTPUT.
Info: FIRST LDB TIMESTEP     50
Info: LAST LDB TIMESTEP     -1
Info: HOM BACKGROUND SCALING 1
Info: PME BACKGROUND SCALING 1
Info: MIN ATOMS PER PATCH    40
Info: EMPTY PATCH LOAD       40 ATOMS
Info: VELOCITY FILE          mobley_6081058_equil.vel
Info: CENTER OF MASS MOVING INITIALLY? NO
Info: DIELECTRIC             1
Info: EXCLUDE                SCALED ONE-FOUR
Info: 1-4 ELECTROSTATICS SCALED BY 0.833333
Info: MODIFIED 1-4 VDW PARAMETERS WILL BE USED
Info: DCD FILENAME           mobley_6081058_prod.dcd
Info: DCD FREQUENCY          100000
Info: DCD FIRST STEP         100000
Info: DCD FILE WILL CONTAIN UNIT CELL DATA
Info: XST FILENAME           mobley_6081058_prod.xst
Info: XST FREQUENCY          100000
Info: NO VELOCITY DCD OUTPUT
Info: NO FORCE DCD OUTPUT
Info: OUTPUT FILENAME        mobley_6081058_prod
Info: BINARY OUTPUT FILES WILL BE USED
Info: RESTART FILENAME       mobley_6081058_prod.restart
Info: RESTART FREQUENCY      100000
Info: BINARY RESTART FILES WILL BE USED
Info: CUTOFF                 9
Info: PAIRLIST DISTANCE      11
Info: PAIRLIST SHRINK RATE   0.01
Info: PAIRLIST GROW RATE     0.01
Info: PAIRLIST TRIGGER       0.3
Info: PAIRLISTS PER CYCLE    2
Info: PAIRLISTS ENABLED
Info: MARGIN                 2
Info: HYDROGEN GROUP CUTOFF  2.5
Info: PATCH DIMENSION        15.5
Info: ENERGY OUTPUT STEPS    100000
Info: ENERGY EVALUATION STEPS    100000
Info: OUTPUT ENERGY PRECISION 4
Info: CROSSTERM ENERGY INCLUDED IN DIHEDRAL
Info: TIMING OUTPUT STEPS    1000000
Info: PRESSURE OUTPUT STEPS  100000
Info: ALCHEMICAL FEP ON
Info: FEP CURRENT LAMBDA VALUE     1
Info: FEP COMPARISON LAMBDA VALUE  0.95
Info: FEP INTRA-ALCHEMICAL NON-BONDED INTERACTIONS WILL BE RETAINED
Info: FEP INTRA-ALCHEMICAL BONDED INTERACTIONS WILL BE RETAINED
Info: FEP VDW SHIFTING COEFFICIENT 5
Info: FEP ELEC. ACTIVE FOR ANNIHILATED PARTICLES BETWEEN LAMBDA = 0 AND LAMBDA = 0.5
Info: FEP ELEC. ACTIVE FOR EXNIHILATED PARTICLES BETWEEN LAMBDA = 0.5 AND LAMBDA = 1
Info: FEP VDW ACTIVE FOR ANNIHILATED PARTICLES BETWEEN LAMBDA = 0 AND LAMBDA = 1
Info: FEP VDW ACTIVE FOR EXNIHILATED PARTICLES BETWEEN LAMBDA = 0 AND LAMBDA = 1
Info: FEP BOND ACTIVE FOR ANNIHILATED PARTICLES BETWEEN LAMBDA = 1 AND LAMBDA = 1
Info: FEP BOND ACTIVE FOR EXNIHILATED PARTICLES BETWEEN LAMBDA = 0 AND LAMBDA = 0
Info: LANGEVIN DYNAMICS ACTIVE
Info: LANGEVIN TEMPERATURE   300
Info: LANGEVIN USING BBK INTEGRATOR
Info: LANGEVIN DAMPING COEFFICIENT IS 1 INVERSE PS
Info: LANGEVIN DYNAMICS APPLIED TO HYDROGENS
Info: LANGEVIN PISTON PRESSURE CONTROL ACTIVE
Info:        TARGET PRESSURE IS 1.01325 BAR
Info:     OSCILLATION PERIOD IS 50 FS
Info:             DECAY TIME IS 25 FS
Info:     PISTON TEMPERATURE IS 300 K
Info:       PRESSURE CONTROL IS GROUP-BASED
Info:    INITIAL STRAIN RATE IS 8.97081e-05 8.97081e-05 8.97081e-05
Info:       CELL FLUCTUATION IS ISOTROPIC
Info: PARTICLE MESH EWALD (PME) ACTIVE
Info: PME TOLERANCE               1e-06
Info: PME EWALD COEFFICIENT       0.348832
Info: PME INTERPOLATION ORDER     4
Info: PME GRID DIMENSIONS         36 32 32
Info: PME MAXIMUM GRID SPACING    1
Info: PME CALCULATION WILL BE PERFORMED ON GPU
Info: FULL ELECTROSTATIC EVALUATION FREQUENCY      2
Info: USING VERLET I (r-RESPA) MTS SCHEME.
Info: C1 SPLITTING OF LONG RANGE ELECTROSTATICS
Info: PLACING ATOMS IN PATCHES BY HYDROGEN GROUPS
Info: RIGID BONDS TO HYDROGEN : ALL
Info:         ERROR TOLERANCE : 1e-08
Info:          MAX ITERATIONS : 100
Info: RIGID WATER USING SETTLE ALGORITHM
Info: RANDOM NUMBER SEED     1744012804
Info: USE HYDROGEN BONDS?    NO
Info: Using AMBER format force field!
Info: AMBER PARM FILE        mobley_6081058.prmtop
Info: COORDINATE PDB         mobley_6081058.pdb
Info: Exclusions will be read from PARM file!
Info: SCNB (VDW SCALING)     2
Info: USING ARITHMETIC MEAN TO COMBINE L-J SIGMA PARAMETERS
Info: BINARY COORDINATES     mobley_6081058_equil.coor
Info: SUMMARY OF PARAMETERS:
Info: 11 BONDS
Info: 14 ANGLES
Info:   14 HARMONIC
Info:   0 COSINE-BASED
Info: 11 DIHEDRAL
Info: 0 IMPROPER
Info: 0 CROSSTERM
Info: 0 VDW
Info: 36 VDW_PAIRS
Info: 0 NBTHOLE_PAIRS
Info: To read alchdata from file: mobley_6081058.pdb
Info: To read alchflag data from column: 5
Info: STRUCTURE SUMMARY:
Info: 2948 ATOMS
Info: 2947 BONDS
Info: 39 ANGLES
Info: 57 DIHEDRALS
Info: 0 IMPROPERS
Info: 0 CROSSTERMS
Info: 3036 EXCLUSIONS
Info: 2939 RIGID BONDS
Info: ALCH: 0 ATOMS TO DISAPPEAR IN FINAL STATE
Info: ALCH: 23 ATOMS TO APPEAR IN FINAL STATE
Info: 5905 DEGREES OF FREEDOM
Info: 984 HYDROGEN GROUPS
Info: 4 ATOMS IN LARGEST HYDROGEN GROUP
Info: 984 MIGRATION GROUPS
Info: 4 ATOMS IN LARGEST MIGRATION GROUP
Info: TOTAL MASS = 17691.8 amu
Info: TOTAL CHARGE = -9.99868e-05 e
Info: MASS DENSITY = 0.966142 g/cm^3
Info: ATOM DENSITY = 0.0969476 atoms/A^3
Info: ADDED 0 IMPLICIT EXCLUSIONS
Info: NONBONDED TABLE R-SQUARED SPACING: 0.0625
Info: NONBONDED TABLE SIZE: 705 POINTS
Info: REMOVING COM VELOCITY -0.0901723 -0.0246609 0.215665
Info: Use 3D box decompostion in PME FFT.
Info: Updated CUDA force table with 4096 elements.
Info: Updated CUDA LJ table with 8 x 8 elements.
Info: Found 24 unique exclusion lists needing 80 bytes
TCL: Running for 1500000 steps
ETITLE: TS BOND ANGLE DIHED IMPRP ELECT VDW BOUNDARY MISC KINETIC TOTAL TEMP POTENTIAL TOTALAVG TEMPAVG PRESSURE GPRESSURE VOLUME PRESSAVG GPRESSAVG
ENERGY: 0 1.9625 8.2166 4.0645 0.0000 -10551.1449 1397.5893 0.0000 0.0000 1742.6663 -7396.6456 297.0193 -9139.3119 -7396.6456 297.0193 89.5283 171.3932 30408.1700 89.5283 171.3932
ENERGY: 300000 4.6274 14.3866 3.3782 0.0000 -10697.3405 1411.7932 0.0000 0.0000 1786.3580 -7476.7971 304.4661 -9263.1551 -7406.5283 302.0581 -488.3311 -288.7967 30407.2285 45.6210 137.8534
ENERGY: 600000 3.1687 9.4934 3.2217 0.0000 -10731.6734 1423.0383 0.0000 0.0000 1755.2899 -7537.4615 299.1709 -9292.7513 -7436.7281 302.0765 -162.5973 -146.7387 29958.2450 -37.2216 42.7702
ENERGY: 900000 1.5214 13.3752 7.5488 0.0000 -10738.2851 1495.7402 0.0000 0.0000 1709.9105 -7510.1889 291.4364 -9220.0995 -7455.2971 300.4063 412.9345 454.8577 30855.6409 102.3583 160.9346
ENERGY: 1200000 1.3387 9.5051 4.0129 0.0000 -10727.8291 1522.6584 0.0000 0.0000 1765.2118 -7425.1021 300.8620 -9190.3139 -7452.2694 300.1415 871.2529 942.2638 30261.7099 136.2196 205.1014
ENERGY: 1500000 3.6127 8.4525 3.4641 0.0000 -10760.9136 1428.4825 0.0000 0.0000 1773.3395 -7543.5622 302.2473 -9316.9017 -7460.5193 299.9434 -303.8865 -261.5825 30288.0910 46.4014 110.9047
TCL: Running FEP window   2: Lambda1 0.95   Lambda2 0.8999999999999999 [dLambda -0.050000000000000044]
TCL: Setting parameter firsttimestep to 0
TCL: Setting parameter alchLambda to 0.95
Info: NONBONDED TABLE R-SQUARED SPACING: 0.0625
Info: NONBONDED TABLE SIZE: 705 POINTS
TCL: Setting parameter alchLambda2 to 0.8999999999999999
Info: NONBONDED TABLE R-SQUARED SPACING: 0.0625
Info: NONBONDED TABLE SIZE: 705 POINTS
TCL: Running for 1500000 steps
ETITLE: TS BOND ANGLE DIHED IMPRP ELECT VDW BOUNDARY MISC KINETIC TOTAL TEMP POTENTIAL TOTALAVG TEMPAVG PRESSURE GPRESSURE VOLUME PRESSAVG GPRESSAVG
ENERGY: 0 3.6128 8.4526 3.4641 0.0000 -10759.5717 1428.2606 0.0000 0.0000 1772.4531 -7543.3286 302.0962 -9315.7817 -7543.3286 302.0962 -359.1880 -277.5477 30288.0910 -359.1880 -277.5477
ENERGY: 300000 4.1826 8.6459 3.3850 0.0000 -10659.5790 1444.7336 0.0000 0.0000 1748.9009 -7449.7311 298.0819 -9198.6319 -7456.2217 302.8378 -144.5494 -74.6289 30672.6850 -11.3370 43.5705
ENERGY: 600000 1.9012 8.0170 4.7049 0.0000 -10648.4259 1398.3034 0.0000 0.0000 1723.0022 -7512.4972 293.6678 -9235.4994 -7443.3645 302.2245 -261.9743 -132.2447 30010.2904 -27.7709 59.5121
ENERGY: 900000 2.0858 11.5667 2.4436 0.0000 -10634.5661 1403.0629 0.0000 0.0000 1832.5610 -7382.8463 312.3409 -9215.4072 -7439.5781 302.6547 -190.7548 -156.4327 30419.6425 41.6120 116.2952
ENERGY: 1200000 3.0171 10.4122 5.3964 0.0000 -10633.4812 1366.7967 0.0000 0.0000 1669.8170 -7578.0418 284.6029 -9247.8588 -7449.8312 300.7149 -856.2140 -804.8994 30433.0645 -100.1421 -23.3179
ENERGY: 1500000 3.7261 10.5580 5.6243 0.0000 -10614.7990 1369.8296 0.0000 0.0000 1777.1198 -7447.9411 302.8916 -9225.0610 -7452.0958 301.3497 -432.9694 -403.1731 30548.9820 -67.3590 1.1275
TCL: Running FEP window   3: Lambda1 0.8999999999999999 Lambda2 0.8499999999999999 [dLambda -0.050000000000000044]
TCL: Setting parameter firsttimestep to 0
TCL: Setting parameter alchLambda to 0.8999999999999999
Info: NONBONDED TABLE R-SQUARED SPACING: 0.0625
Info: NONBONDED TABLE SIZE: 705 POINTS
TCL: Setting parameter alchLambda2 to 0.8499999999999999
Info: NONBONDED TABLE R-SQUARED SPACING: 0.0625
Info: NONBONDED TABLE SIZE: 705 POINTS
TCL: Running for 1500000 steps
ETITLE: TS BOND ANGLE DIHED IMPRP ELECT VDW BOUNDARY MISC KINETIC TOTAL TEMP POTENTIAL TOTALAVG TEMPAVG PRESSURE GPRESSURE VOLUME PRESSAVG GPRESSAVG
ENERGY: 0 3.7261 10.5580 5.6243 0.0000 -10614.0842 1370.0525 0.0000 0.0000 1776.2940 -7447.8294 302.7508 -9224.1234 -7447.8294 302.7508 -501.2515 -413.8724 30548.9820 -501.2515 -413.8724
ENERGY: 300000 5.9924 9.4512 2.3423 0.0000 -10601.6439 1361.3644 0.0000 0.0000 1669.2664 -7553.2272 284.5091 -9222.4936 -7455.0894 298.3253 -193.2431 -165.3623 30033.5232 -38.4669 -6.4973
ENERGY: 600000 1.4020 12.9368 2.5472 0.0000 -10662.7337 1452.5753 0.0000 0.0000 1776.3540 -7416.9184 302.7611 -9193.2724 -7405.6048 301.5870 220.5486 254.2396 30385.3704 130.4102 168.9665
ENERGY: 900000 2.1235 10.1945 1.9124 0.0000 -10488.6228 1288.6448 0.0000 0.0000 1750.8034 -7434.9441 298.4062 -9185.7474 -7416.5567 300.8949 -1009.1368 -928.7487 30394.1628 -114.9477 -64.7836
ENERGY: 1200000 2.1635 13.9228 4.9277 0.0000 -10800.6102 1562.2098 0.0000 0.0000 1807.0116 -7410.3748 307.9863 -9217.3864 -7420.4943 301.5427 1228.5883 1298.1838 29862.4892 -42.0117 9.9585
ENERGY: 1500000 2.7009 14.6127 3.8066 0.0000 -10569.4818 1310.9284 0.0000 0.0000 1791.4636 -7445.9696 305.3363 -9237.4332 -7421.7673 301.9585 -1144.3250 -1081.9684 30622.6105 -137.0988 -84.7656
TCL: Running FEP window   4: Lambda1 0.8499999999999999 Lambda2 0.7999999999999998 [dLambda -0.050000000000000044]
TCL: Setting parameter firsttimestep to 0
TCL: Setting parameter alchLambda to 0.8499999999999999
Info: NONBONDED TABLE R-SQUARED SPACING: 0.0625
Info: NONBONDED TABLE SIZE: 705 POINTS
TCL: Setting parameter alchLambda2 to 0.7999999999999998
Info: NONBONDED TABLE R-SQUARED SPACING: 0.0625
Info: NONBONDED TABLE SIZE: 705 POINTS
TCL: Running for 1500000 steps
ETITLE: TS BOND ANGLE DIHED IMPRP ELECT VDW BOUNDARY MISC KINETIC TOTAL TEMP POTENTIAL TOTALAVG TEMPAVG PRESSURE GPRESSURE VOLUME PRESSAVG GPRESSAVG
ENERGY: 0 2.7009 14.6127 3.8066 0.0000 -10568.1641 1311.4944 0.0000 0.0000 1790.5620 -7444.9876 305.1827 -9235.5496 -7444.9876 305.1827 -1177.5496 -1086.3973 30622.6105 -1177.5496 -1086.3973
ENERGY: 300000 1.7106 8.2652 3.9567 0.0000 -10565.5270 1370.6771 0.0000 0.0000 1761.4590 -7419.4584 300.2224 -9180.9174 -7469.5246 299.7936 -451.0247 -377.1202 30581.7642 -698.8215 -616.2673
ENERGY: 600000 3.6242 5.9496 2.3490 0.0000 -10636.9963 1416.1263 0.0000 0.0000 1773.7915 -7435.1558 302.3243 -9208.9473 -7454.8807 299.9469 4.1906 17.5622 30434.4558 -365.1120 -306.9049
ENERGY: 900000 2.5686 10.3199 2.6428 0.0000 -10635.6322 1409.8580 0.0000 0.0000 1759.4769 -7450.7659 299.8845 -9210.2428 -7463.8362 298.8804 -2.4372 24.9731 30189.0636 -255.5241 -201.5410
ENERGY: 1200000 4.9912 8.4851 4.0716 0.0000 -10623.2207 1450.9202 0.0000 0.0000 1767.9647 -7386.7880 301.3312 -9154.7526 -7463.3019 299.3631 237.4620 382.6596 30118.2854 -226.9766 -166.4362
ENERGY: 1500000 1.4201 13.1759 4.0584 0.0000 -10661.0647 1417.3907 0.0000 0.0000 1787.2778 -7437.7419 304.6229 -9225.0197 -7454.7874 299.6530 -244.3623 -209.5382 30769.5964 -225.3652 -161.2072
TCL: Running FEP window   5: Lambda1 0.7999999999999998 Lambda2 0.7499999999999998 [dLambda -0.050000000000000044]
TCL: Setting parameter firsttimestep to 0
TCL: Setting parameter alchLambda to 0.7999999999999998
Info: NONBONDED TABLE R-SQUARED SPACING: 0.0625
Info: NONBONDED TABLE SIZE: 705 POINTS
TCL: Setting parameter alchLambda2 to 0.7499999999999998
Info: NONBONDED TABLE R-SQUARED SPACING: 0.0625
Info: NONBONDED TABLE SIZE: 705 POINTS
TCL: Running for 1500000 steps
ETITLE: TS BOND ANGLE DIHED IMPRP ELECT VDW BOUNDARY MISC KINETIC TOTAL TEMP POTENTIAL TOTALAVG TEMPAVG PRESSURE GPRESSURE VOLUME PRESSAVG GPRESSAVG
ENERGY: 0 1.4201 13.1759 4.0584 0.0000 -10660.5227 1417.4612 0.0000 0.0000 1786.3940 -7438.0132 304.4723 -9224.4072 -7438.0132 304.4723 -314.8265 -226.1134 30769.5964 -314.8265 -226.1134
ENERGY: 300000 3.2024 13.3286 3.5276 0.0000 -10641.3828 1409.0473 0.0000 0.0000 1748.9975 -7463.2793 298.0984 -9212.2768 -7446.3859 298.6068 -76.0844 -30.5973 30310.3626 -72.8027 -0.4096
ENERGY: 600000 5.4822 11.4244 5.1265 0.0000 -10700.0906 1441.1831 0.0000 0.0000 1758.2546 -7478.6199 299.6762 -9236.8745 -7432.4148 299.8165 -3.4803 20.2421 30448.8256 5.6229 61.0361
ENERGY: 900000 0.8582 10.1306 3.2958 0.0000 -10643.6017 1446.7660 0.0000 0.0000 1735.3728 -7447.1783 295.7762 -9182.5511 -7437.1200 299.8926 278.6430 327.6788 30356.2906 -5.4841 51.6905
ENERGY: 1200000 1.7114 7.5158 2.2927 0.0000 -10595.4739 1422.0300 0.0000 0.0000 1710.9042 -7451.0198 291.6058 -9161.9239 -7435.1542 299.0592 26.4597 69.4676 30580.3864 -103.0765 -50.6116
ENERGY: 1500000 3.0095 6.5885 4.0142 0.0000 -10704.3242 1555.8130 0.0000 0.0000 1803.1038 -7331.7952 307.3203 -9134.8990 -7415.9699 300.7574 1060.4005 1187.7859 30484.9707 -46.8131 11.6287
TCL: Running FEP window   6: Lambda1 0.7499999999999998 Lambda2 0.6999999999999997 [dLambda -0.050000000000000044]
TCL: Setting parameter firsttimestep to 0
TCL: Setting parameter alchLambda to 0.7499999999999998
Info: NONBONDED TABLE R-SQUARED SPACING: 0.0625
Info: NONBONDED TABLE SIZE: 705 POINTS
TCL: Setting parameter alchLambda2 to 0.6999999999999997
Info: NONBONDED TABLE R-SQUARED SPACING: 0.0625
Info: NONBONDED TABLE SIZE: 705 POINTS
TCL: Running for 1500000 steps
ETITLE: TS BOND ANGLE DIHED IMPRP ELECT VDW BOUNDARY MISC KINETIC TOTAL TEMP POTENTIAL TOTALAVG TEMPAVG PRESSURE GPRESSURE VOLUME PRESSAVG GPRESSAVG
ENERGY: 0 3.0095 6.5885 4.0142 0.0000 -10703.1511 1555.0272 0.0000 0.0000 1802.1826 -7332.3291 307.1633 -9134.5117 -7332.3291 307.1633 1068.3443 1169.8179 30484.9707 1068.3443 1169.8179
ENERGY: 300000 5.6723 10.5713 1.7568 0.0000 -10556.4426 1339.7930 0.0000 0.0000 1763.2852 -7435.3640 300.5336 -9198.6492 -7474.1614 300.0022 -1104.7562 -1013.6847 31312.6500 118.1532 190.1092
ENERGY: 600000 2.2530 7.7796 2.4028 0.0000 -10707.0875 1442.5411 0.0000 0.0000 1779.4606 -7472.6503 303.2905 -9252.1109 -7460.0808 300.9110 397.4548 445.1839 29868.1727 160.5493 229.3176
ENERGY: 900000 1.4022 9.2178 4.2274 0.0000 -10583.9341 1356.6954 0.0000 0.0000 1765.2384 -7447.1530 300.8665 -9212.3913 -7451.7123 301.2340 -617.5005 -583.2778 30519.9711 21.1186 95.0735
ENERGY: 1200000 3.1589 12.5700 3.8954 0.0000 -10745.5771 1467.8039 0.0000 0.0000 1766.3805 -7491.7684 301.0612 -9258.1489 -7450.3311 301.1706 143.1653 161.7665 30090.2772 25.4111 94.5705
ENERGY: 1500000 1.6892 12.1450 2.0409 0.0000 -10368.0538 1196.9636 0.0000 0.0000 1730.0806 -7425.1345 294.8742 -9155.2151 -7450.9544 300.7334 -1873.1707 -1839.7301 30755.3566 -130.3401 -64.7162
TCL: Running FEP window   7: Lambda1 0.6999999999999997 Lambda2 0.6499999999999997 [dLambda -0.050000000000000044]
TCL: Setting parameter firsttimestep to 0
TCL: Setting parameter alchLambda to 0.6999999999999997
Info: NONBONDED TABLE R-SQUARED SPACING: 0.0625
Info: NONBONDED TABLE SIZE: 705 POINTS
TCL: Setting parameter alchLambda2 to 0.6499999999999997
Info: NONBONDED TABLE R-SQUARED SPACING: 0.0625
Info: NONBONDED TABLE SIZE: 705 POINTS
TCL: Running for 1500000 steps
ETITLE: TS BOND ANGLE DIHED IMPRP ELECT VDW BOUNDARY MISC KINETIC TOTAL TEMP POTENTIAL TOTALAVG TEMPAVG PRESSURE GPRESSURE VOLUME PRESSAVG GPRESSAVG
ENERGY: 0 1.6892 12.1450 2.0409 0.0000 -10366.9068 1196.3313 0.0000 0.0000 1729.1801 -7425.5203 294.7208 -9154.7004 -7425.5203 294.7208 -1937.0104 -1855.6805 30755.3566 -1937.0104 -1855.6805
ENERGY: 300000 2.8878 10.8410 4.1914 0.0000 -10815.6595 1462.0113 0.0000 0.0000 1688.4143 -7647.3136 287.7726 -9335.7279 -7496.4273 295.6826 -195.6572 -48.0179 29929.2655 -765.6166 -643.8638
ENERGY: 600000 4.1697 16.4324 3.0542 0.0000 -10663.4318 1467.0849 0.0000 0.0000 1726.2069 -7446.4837 294.2140 -9172.6906 -7462.8919 297.8878 689.6671 765.7804 30060.6162 -75.3159 29.4491
ENERGY: 900000 3.4218 9.2690 1.8319 0.0000 -10685.2300 1389.8278 0.0000 0.0000 1760.5694 -7520.3102 300.0707 -9280.8795 -7471.0558 297.8597 -489.8421 -398.3646 30288.7770 -222.8567 -135.5417
ENERGY: 1200000 4.9426 9.4715 4.3866 0.0000 -10801.9309 1492.4241 0.0000 0.0000 1725.7507 -7564.9555 294.1362 -9290.7061 -7482.8922 296.7652 -69.6792 33.0270 30378.6063 -197.4841 -117.6566
ENERGY: 1500000 3.0179 9.9506 2.3996 0.0000 -10598.8032 1389.3015 0.0000 0.0000 1753.3890 -7440.7445 298.8469 -9194.1335 -7474.7160 297.2543 -211.2008 -183.4188 30318.0298 -188.6092 -113.9698
TCL: Running FEP window   8: Lambda1 0.6499999999999997 Lambda2 0.5999999999999996 [dLambda -0.050000000000000044]
TCL: Setting parameter firsttimestep to 0
TCL: Setting parameter alchLambda to 0.6499999999999997
Info: NONBONDED TABLE R-SQUARED SPACING: 0.0625
Info: NONBONDED TABLE SIZE: 705 POINTS
TCL: Setting parameter alchLambda2 to 0.5999999999999996
Info: NONBONDED TABLE R-SQUARED SPACING: 0.0625
Info: NONBONDED TABLE SIZE: 705 POINTS
TCL: Running for 1500000 steps
ETITLE: TS BOND ANGLE DIHED IMPRP ELECT VDW BOUNDARY MISC KINETIC TOTAL TEMP POTENTIAL TOTALAVG TEMPAVG PRESSURE GPRESSURE VOLUME PRESSAVG GPRESSAVG
ENERGY: 0 3.0179 9.9506 2.3996 0.0000 -10597.8290 1389.5215 0.0000 0.0000 1752.5001 -7440.4393 298.6954 -9192.9394 -7440.4393 298.6954 -264.9906 -185.7409 30318.0298 -264.9906 -185.7409
ENERGY: 300000 1.5904 10.7754 2.5117 0.0000 -10612.0202 1426.6474 0.0000 0.0000 1802.3846 -7368.1106 307.1977 -9170.4953 -7450.8407 302.2106 -50.5570 -18.2423 30686.0340 -323.2023 -239.5058
ENERGY: 600000 0.6228 12.2661 3.6556 0.0000 -10494.7322 1321.3678 0.0000 0.0000 1800.3319 -7356.4881 306.8478 -9156.8200 -7439.5361 300.1015 -590.4882 -554.8182 30594.8327 -176.1050 -101.6929
ENERGY: 900000 1.9683 10.2176 2.8661 0.0000 -10631.0920 1438.5922 0.0000 0.0000 1802.7909 -7374.6570 307.2669 -9177.4479 -7429.3558 301.0992 -142.9597 -106.1065 30915.8305 -190.4558 -123.0243
ENERGY: 1200000 2.8845 8.9066 3.0900 0.0000 -10717.7743 1501.7412 0.0000 0.0000 1790.5423 -7410.6097 305.1793 -9201.1520 -7419.8031 302.3566 681.9138 714.7783 30213.6769 -89.7384 -17.1255
ENERGY: 1500000 2.0784 6.4215 3.1218 0.0000 -10691.0361 1426.4148 0.0000 0.0000 1733.7355 -7519.2640 295.4972 -9252.9996 -7430.5808 301.6721 -334.8386 -281.3962 30368.1321 -105.1602 -38.7600
TCL: Running FEP window   9: Lambda1 0.5999999999999996 Lambda2 0.5499999999999996 [dLambda -0.050000000000000044]
TCL: Setting parameter firsttimestep to 0
TCL: Setting parameter alchLambda to 0.5999999999999996
Info: NONBONDED TABLE R-SQUARED SPACING: 0.0625
Info: NONBONDED TABLE SIZE: 705 POINTS
TCL: Setting parameter alchLambda2 to 0.5499999999999996
Info: NONBONDED TABLE R-SQUARED SPACING: 0.0625
Info: NONBONDED TABLE SIZE: 705 POINTS
TCL: Running for 1500000 steps
ETITLE: TS BOND ANGLE DIHED IMPRP ELECT VDW BOUNDARY MISC KINETIC TOTAL TEMP POTENTIAL TOTALAVG TEMPAVG PRESSURE GPRESSURE VOLUME PRESSAVG GPRESSAVG
ENERGY: 0 2.0784 6.4215 3.1218 0.0000 -10690.6482 1426.9353 0.0000 0.0000 1732.8394 -7519.2519 295.3444 -9252.0913 -7519.2519 295.3444 -363.4523 -283.2030 30368.1321 -363.4523 -283.2030
ENERGY: 300000 1.4635 11.5675 2.8414 0.0000 -10470.8810 1350.5289 0.0000 0.0000 1775.3451 -7329.1346 302.5891 -9104.4797 -7414.4932 297.5187 -425.9070 -382.1012 30540.9252 -307.2877 -230.1630
ENERGY: 600000 2.4967 9.4512 3.9282 0.0000 -10767.5872 1516.5447 0.0000 0.0000 1749.9660 -7485.2004 298.2635 -9235.1663 -7431.0872 298.0545 600.3165 749.6768 29972.2106 -18.7298 56.8363
ENERGY: 900000 4.5196 11.6210 2.4803 0.0000 -10556.6784 1380.7745 0.0000 0.0000 1744.3457 -7412.9373 297.3056 -9157.2831 -7439.9932 297.5951 208.7218 233.1392 29816.9572 -19.3819 45.9671
ENERGY: 1200000 3.3609 13.9828 5.9184 0.0000 -10701.1204 1467.9014 0.0000 0.0000 1759.3002 -7450.6566 299.8544 -9209.9568 -7448.0519 297.1407 525.7185 553.4308 30014.4541 -23.0164 40.1856
ENERGY: 1500000 4.3948 5.8558 3.2368 0.0000 -10666.8277 1491.5355 0.0000 0.0000 1798.2164 -7363.5883 306.4873 -9161.8047 -7437.4718 298.5034 248.9555 359.9544 30834.0436 12.8139 78.4616
TCL: Running FEP window  10: Lambda1 0.5499999999999996 Lambda2 0.4999999999999996 [dLambda -0.04999999999999999]
TCL: Setting parameter firsttimestep to 0
TCL: Setting parameter alchLambda to 0.5499999999999996
Info: NONBONDED TABLE R-SQUARED SPACING: 0.0625
Info: NONBONDED TABLE SIZE: 705 POINTS
TCL: Setting parameter alchLambda2 to 0.4999999999999996
Info: NONBONDED TABLE R-SQUARED SPACING: 0.0625
Info: NONBONDED TABLE SIZE: 705 POINTS
TCL: Running for 1500000 steps
ETITLE: TS BOND ANGLE DIHED IMPRP ELECT VDW BOUNDARY MISC KINETIC TOTAL TEMP POTENTIAL TOTALAVG TEMPAVG PRESSURE GPRESSURE VOLUME PRESSAVG GPRESSAVG
ENERGY: 0 4.3948 5.8558 3.2368 0.0000 -10666.4078 1491.0350 0.0000 0.0000 1797.3353 -7364.5500 306.3371 -9161.8853 -7364.5500 306.3371 262.5643 347.1410 30834.0436 262.5643 347.1410
ENERGY: 300000 1.7006 11.3216 3.7853 0.0000 -10545.0131 1354.0584 0.0000 0.0000 1706.2909 -7467.8563 290.8195 -9174.1472 -7469.1860 298.6566 -481.0819 -382.0771 30263.6239 -159.9281 -77.8638
ENERGY: 600000 2.0329 8.6481 3.0387 0.0000 -10641.0338 1460.6738 0.0000 0.0000 1791.8488 -7374.7915 305.4020 -9166.6403 -7427.0412 299.7294 243.6636 280.2157 30419.8843 -199.8910 -151.6946
ENERGY: 900000 4.3979 7.7657 3.3685 0.0000 -10452.9226 1342.9905 0.0000 0.0000 1754.8993 -7339.5007 299.1043 -9094.4000 -7424.4510 299.6383 -651.1596 -571.9649 30458.1756 -103.9920 -53.4705
ENERGY: 1200000 2.5349 5.7132 2.9902 0.0000 -10752.4565 1598.2586 0.0000 0.0000 1791.3822 -7351.5775 305.3224 -9142.9597 -7421.5300 300.7293 1603.3527 1627.2925 30017.2486 -87.0977 -39.8704
ENERGY: 1500000 1.7503 17.8008 2.0144 0.0000 -10615.0356 1431.1270 0.0000 0.0000 1799.5843 -7362.7588 306.7204 -9162.3431 -7413.9719 300.9042 1.7749 99.8229 30415.6705 -31.7777 19.7085
TCL: Running FEP window  11: Lambda1 0.4999999999999996 Lambda2 0.4499999999999996 [dLambda -0.04999999999999999]
TCL: Setting parameter firsttimestep to 0
TCL: Setting parameter alchLambda to 0.4999999999999996
Info: NONBONDED TABLE R-SQUARED SPACING: 0.0625
Info: NONBONDED TABLE SIZE: 705 POINTS
TCL: Setting parameter alchLambda2 to 0.4499999999999996
Info: NONBONDED TABLE R-SQUARED SPACING: 0.0625
Info: NONBONDED TABLE SIZE: 705 POINTS
TCL: Running for 1500000 steps
ETITLE: TS BOND ANGLE DIHED IMPRP ELECT VDW BOUNDARY MISC KINETIC TOTAL TEMP POTENTIAL TOTALAVG TEMPAVG PRESSURE GPRESSURE VOLUME PRESSAVG GPRESSAVG
ENERGY: 0 1.7503 17.8008 2.0144 0.0000 -10614.4479 1431.7144 0.0000 0.0000 1798.7447 -7362.4234 306.5773 -9161.1680 -7362.4234 306.5773 1.9598 96.6936 30415.6705 1.9598 96.6936
ENERGY: 300000 2.5456 8.6108 2.5168 0.0000 -10592.3552 1321.9601 0.0000 0.0000 1730.9435 -7525.7785 295.0213 -9256.7220 -7435.6315 302.8976 -1204.9550 -1170.5130 30688.5353 -474.0204 -407.3996
ENERGY: 600000 2.6226 13.7377 2.8750 0.0000 -10675.9840 1397.4222 0.0000 0.0000 1752.6888 -7506.6378 298.7276 -9259.3265 -7431.8974 301.9605 -444.0872 -333.5246 30328.8681 -363.5986 -289.5083
ENERGY: 900000 4.0860 10.7456 2.9262 0.0000 -10667.4873 1452.5831 0.0000 0.0000 1777.2834 -7419.8629 302.9195 -9197.1464 -7446.3886 300.0865 -13.9829 -56.1482 30860.7828 -304.1865 -243.3291
ENERGY: 1200000 1.3757 15.2947 2.4580 0.0000 -10611.5618 1404.8458 0.0000 0.0000 1788.8259 -7398.7617 304.8868 -9187.5876 -7439.9070 300.6681 227.9667 238.4064 29729.3218 -200.3608 -141.4465
ENERGY: 1500000 1.2914 11.4663 3.7787 0.0000 -10619.5059 1446.6490 0.0000 0.0000 1752.5089 -7403.8116 298.6969 -9156.3205 -7431.9103 300.5749 533.5114 619.3591 29918.2279 -186.0349 -122.9775
TCL: Running FEP window  12: Lambda1 0.4499999999999996 Lambda2 0.39999999999999963 [dLambda -0.04999999999999999]
TCL: Setting parameter firsttimestep to 0
TCL: Setting parameter alchLambda to 0.4499999999999996
Info: NONBONDED TABLE R-SQUARED SPACING: 0.0625
Info: NONBONDED TABLE SIZE: 705 POINTS
TCL: Setting parameter alchLambda2 to 0.39999999999999963
Info: NONBONDED TABLE R-SQUARED SPACING: 0.0625
Info: NONBONDED TABLE SIZE: 705 POINTS
TCL: Running for 1500000 steps
ETITLE: TS BOND ANGLE DIHED IMPRP ELECT VDW BOUNDARY MISC KINETIC TOTAL TEMP POTENTIAL TOTALAVG TEMPAVG PRESSURE GPRESSURE VOLUME PRESSAVG GPRESSAVG
ENERGY: 0 1.2914 11.4663 3.7787 0.0000 -10619.5056 1446.9475 0.0000 0.0000 1751.5962 -7404.4255 298.5413 -9156.0218 -7404.4255 298.5413 512.7263 614.2885 29918.2279 512.7263 614.2885
ENERGY: 300000 3.0913 9.3628 3.1112 0.0000 -10590.6740 1403.1521 0.0000 0.0000 1755.0383 -7416.9182 299.1280 -9171.9565 -7416.7302 298.3642 -101.7940 -19.1150 30449.1689 -4.4751 77.8205
ENERGY: 600000 2.2382 10.4633 1.9821 0.0000 -10612.6640 1425.4224 0.0000 0.0000 1780.0013 -7392.5566 303.3827 -9172.5579 -7416.1027 299.2681 63.0410 130.2048 30092.7862 -170.0035 -87.7429
ENERGY: 900000 2.2900 10.5789 2.6322 0.0000 -10582.2190 1430.4077 0.0000 0.0000 1733.3797 -7402.9305 295.4365 -9136.3102 -7415.8868 299.3342 286.0266 359.8536 30252.2408 -50.3782 31.3007
ENERGY: 1200000 3.4994 11.3061 6.1841 0.0000 -10829.0518 1493.3709 0.0000 0.0000 1813.8730 -7500.8183 309.1558 -9314.6913 -7423.1653 300.1940 323.1054 432.4802 29872.4318 7.5902 83.5715
ENERGY: 1500000 3.5674 5.6609 5.0067 0.0000 -10626.7889 1420.3838 0.0000 0.0000 1728.6771 -7463.4931 294.6350 -9192.1702 -7428.6389 300.4768 -356.1499 -294.5350 30785.1478 14.0602 91.2309
TCL: Running FEP window  13: Lambda1 0.39999999999999963 Lambda2 0.34999999999999964 [dLambda -0.04999999999999999]
TCL: Setting parameter firsttimestep to 0
TCL: Setting parameter alchLambda to 0.39999999999999963
Info: NONBONDED TABLE R-SQUARED SPACING: 0.0625
Info: NONBONDED TABLE SIZE: 705 POINTS
TCL: Setting parameter alchLambda2 to 0.34999999999999964
Info: NONBONDED TABLE R-SQUARED SPACING: 0.0625
Info: NONBONDED TABLE SIZE: 705 POINTS
TCL: Running for 1500000 steps
ETITLE: TS BOND ANGLE DIHED IMPRP ELECT VDW BOUNDARY MISC KINETIC TOTAL TEMP POTENTIAL TOTALAVG TEMPAVG PRESSURE GPRESSURE VOLUME PRESSAVG GPRESSAVG
ENERGY: 0 3.5674 5.6609 5.0067 0.0000 -10626.7881 1420.7814 0.0000 0.0000 1727.7814 -7463.9903 294.4824 -9191.7717 -7463.9903 294.4824 -367.8288 -297.8178 30785.1478 -367.8288 -297.8178
ENERGY: 300000 1.4116 10.6905 4.6924 0.0000 -10746.3594 1485.5588 0.0000 0.0000 1736.0632 -7507.9430 295.8939 -9244.0062 -7484.1465 296.9550 210.5569 249.1305 30288.0243 -287.4172 -234.4587
ENERGY: 600000 2.6108 6.3374 4.7882 0.0000 -10575.5963 1344.4475 0.0000 0.0000 1801.9821 -7415.4304 307.1291 -9217.4124 -7461.2853 299.7528 -941.9842 -874.5805 30422.7613 -477.2379 -422.4430
ENERGY: 900000 6.7185 13.3406 3.2363 0.0000 -10494.9884 1337.0294 0.0000 0.0000 1732.1658 -7402.4979 295.2296 -9134.6637 -7463.6487 297.7067 -596.6690 -518.7864 29975.1634 -535.9828 -471.3851
ENERGY: 1200000 0.9399 6.7759 5.6313 0.0000 -10668.3064 1452.6800 0.0000 0.0000 1735.0010 -7467.2783 295.7129 -9202.2793 -7466.7571 297.8848 45.9816 138.8563 30320.2058 -352.2020 -282.4021
ENERGY: 1500000 3.7361 13.3267 3.1237 0.0000 -10742.9918 1425.7637 0.0000 0.0000 1780.3990 -7516.6426 303.4505 -9297.0416 -7479.6138 297.3717 -239.0605 -139.7681 29716.1749 -301.3181 -234.4588
TCL: Running FEP window  14: Lambda1 0.34999999999999964 Lambda2 0.29999999999999966 [dLambda -0.04999999999999999]
TCL: Setting parameter firsttimestep to 0
TCL: Setting parameter alchLambda to 0.34999999999999964
Info: NONBONDED TABLE R-SQUARED SPACING: 0.0625
Info: NONBONDED TABLE SIZE: 705 POINTS
TCL: Setting parameter alchLambda2 to 0.29999999999999966
Info: NONBONDED TABLE R-SQUARED SPACING: 0.0625
Info: NONBONDED TABLE SIZE: 705 POINTS
TCL: Running for 1500000 steps
ETITLE: TS BOND ANGLE DIHED IMPRP ELECT VDW BOUNDARY MISC KINETIC TOTAL TEMP POTENTIAL TOTALAVG TEMPAVG PRESSURE GPRESSURE VOLUME PRESSAVG GPRESSAVG
ENERGY: 0 3.7362 13.3267 3.1237 0.0000 -10742.9913 1426.4443 0.0000 0.0000 1779.5371 -7516.8233 303.3036 -9296.3604 -7516.8233 303.3036 -227.7980 -141.6061 29716.1749 -227.7980 -141.6061
ENERGY: 300000 1.7096 9.5550 4.9576 0.0000 -10596.1961 1421.1450 0.0000 0.0000 1736.4278 -7422.4010 295.9561 -9158.8289 -7417.8264 299.8221 -140.9963 -28.3619 30672.4578 112.5824 184.9802
ENERGY: 600000 1.6001 7.2990 3.0027 0.0000 -10707.8891 1496.6748 0.0000 0.0000 1804.0604 -7395.2520 307.4833 -9199.3124 -7419.6813 300.2580 437.2344 513.8373 30063.2823 61.6933 119.2660
ENERGY: 900000 1.7290 15.6336 3.2868 0.0000 -10698.7323 1491.6045 0.0000 0.0000 1711.9623 -7474.5160 291.7862 -9186.4783 -7433.4624 298.7582 601.1916 693.8652 30179.0166 162.2034 219.0623
ENERGY: 1200000 2.1779 12.2044 3.2684 0.0000 -10674.0465 1519.0434 0.0000 0.0000 1785.2279 -7352.1244 304.2735 -9137.3523 -7431.3970 299.1405 744.1106 801.7182 30281.6166 96.3510 161.6058
ENERGY: 1500000 3.8387 11.9346 3.4107 0.0000 -10673.6868 1472.2593 0.0000 0.0000 1820.1937 -7362.0498 310.2331 -9182.2435 -7422.9960 299.4805 277.3507 326.0910 30159.5031 93.1246 155.9820
TCL: Running FEP window  15: Lambda1 0.29999999999999966 Lambda2 0.24999999999999967 [dLambda -0.04999999999999999]
TCL: Setting parameter firsttimestep to 0
TCL: Setting parameter alchLambda to 0.29999999999999966
Info: NONBONDED TABLE R-SQUARED SPACING: 0.0625
Info: NONBONDED TABLE SIZE: 705 POINTS
TCL: Setting parameter alchLambda2 to 0.24999999999999967
Info: NONBONDED TABLE R-SQUARED SPACING: 0.0625
Info: NONBONDED TABLE SIZE: 705 POINTS
TCL: Running for 1500000 steps
ETITLE: TS BOND ANGLE DIHED IMPRP ELECT VDW BOUNDARY MISC KINETIC TOTAL TEMP POTENTIAL TOTALAVG TEMPAVG PRESSURE GPRESSURE VOLUME PRESSAVG GPRESSAVG
ENERGY: 0 3.8387 11.9346 3.4107 0.0000 -10673.6857 1472.5295 0.0000 0.0000 1819.3341 -7362.6381 310.0866 -9181.9723 -7362.6381 310.0866 238.0235 323.8433 30159.5031 238.0235 323.8433
ENERGY: 300000 3.5248 13.2573 3.9667 0.0000 -10574.7907 1407.4258 0.0000 0.0000 1760.4220 -7386.1941 300.0456 -9146.6162 -7393.2713 302.9069 -117.5392 -65.5945 30564.1948 272.6019 360.5000
ENERGY: 600000 3.4825 11.7197 2.4068 0.0000 -10639.0333 1358.6169 0.0000 0.0000 1747.3950 -7515.4124 297.8253 -9262.8074 -7414.1220 301.7497 -798.0699 -762.8111 30037.5592 127.7524 198.7293
ENERGY: 900000 4.5600 8.8641 2.4220 0.0000 -10719.5416 1453.6103 0.0000 0.0000 1767.0827 -7483.0025 301.1809 -9250.0852 -7425.5670 301.0140 -66.6671 42.9468 30249.4790 76.1588 137.7065
ENERGY: 1200000 3.0625 15.4510 4.2415 0.0000 -10676.7412 1392.7580 0.0000 0.0000 1832.2870 -7428.9413 312.2942 -9261.2282 -7442.8385 299.9992 -401.4319 -321.1497 30097.6949 40.6131 94.7994
ENERGY: 1500000 2.1040 8.9945 2.1882 0.0000 -10721.5352 1475.8953 0.0000 0.0000 1744.3309 -7488.0223 297.3031 -9232.3532 -7452.4433 298.7960 0.2091 75.5562 30566.3224 25.5881 84.5715
TCL: Running FEP window  16: Lambda1 0.24999999999999967 Lambda2 0.19999999999999968 [dLambda -0.04999999999999999]
TCL: Setting parameter firsttimestep to 0
TCL: Setting parameter alchLambda to 0.24999999999999967
Info: NONBONDED TABLE R-SQUARED SPACING: 0.0625
Info: NONBONDED TABLE SIZE: 705 POINTS
TCL: Setting parameter alchLambda2 to 0.19999999999999968
Info: NONBONDED TABLE R-SQUARED SPACING: 0.0625
Info: NONBONDED TABLE SIZE: 705 POINTS
TCL: Running for 1500000 steps
ETITLE: TS BOND ANGLE DIHED IMPRP ELECT VDW BOUNDARY MISC KINETIC TOTAL TEMP POTENTIAL TOTALAVG TEMPAVG PRESSURE GPRESSURE VOLUME PRESSAVG GPRESSAVG
ENERGY: 0 2.1040 8.9945 2.1882 0.0000 -10721.5345 1476.0465 0.0000 0.0000 1743.4063 -7488.7949 297.1455 -9232.2012 -7488.7949 297.1455 -10.2273 71.1878 30566.3224 -10.2273 71.1878
ENERGY: 300000 5.3851 11.5659 8.2554 0.0000 -10696.9599 1429.0191 0.0000 0.0000 1792.8022 -7449.9321 305.5645 -9242.7344 -7497.6103 297.1398 398.0800 420.8711 29685.7027 131.6525 173.2210
ENERGY: 600000 2.3751 9.4017 3.2001 0.0000 -10785.7837 1494.6513 0.0000 0.0000 1735.4262 -7540.7293 295.7853 -9276.1555 -7489.6688 296.5318 248.6685 252.3880 29986.7748 117.0040 163.2350
ENERGY: 900000 1.9129 8.8168 2.0062 0.0000 -10790.0613 1547.3843 0.0000 0.0000 1804.4595 -7425.4816 307.5513 -9229.9411 -7465.0488 299.6632 805.8481 873.6489 29858.7636 279.1683 326.2988
ENERGY: 1200000 3.1340 9.4403 2.3461 0.0000 -10520.2649 1456.6530 0.0000 0.0000 1758.8230 -7289.8685 299.7731 -9048.6915 -7442.0262 300.1086 256.1892 326.4105 30761.5003 154.3986 211.5796
ENERGY: 1500000 0.6133 10.7396 1.9193 0.0000 -10579.0737 1426.0782 0.0000 0.0000 1810.9239 -7328.7994 308.6531 -9139.7233 -7431.0981 301.3942 55.3932 103.5907 30590.6285 110.0617 167.2298
TCL: Running FEP window  17: Lambda1 0.19999999999999968 Lambda2 0.1499999999999997 [dLambda -0.04999999999999999]
TCL: Setting parameter firsttimestep to 0
TCL: Setting parameter alchLambda to 0.19999999999999968
Info: NONBONDED TABLE R-SQUARED SPACING: 0.0625
Info: NONBONDED TABLE SIZE: 705 POINTS
TCL: Setting parameter alchLambda2 to 0.1499999999999997
Info: NONBONDED TABLE R-SQUARED SPACING: 0.0625
Info: NONBONDED TABLE SIZE: 705 POINTS
TCL: Running for 1500000 steps
ETITLE: TS BOND ANGLE DIHED IMPRP ELECT VDW BOUNDARY MISC KINETIC TOTAL TEMP POTENTIAL TOTALAVG TEMPAVG PRESSURE GPRESSURE VOLUME PRESSAVG GPRESSAVG
ENERGY: 0 0.6133 10.7396 1.9193 0.0000 -10579.0734 1426.0552 0.0000 0.0000 1810.0550 -7329.6909 308.5050 -9139.7460 -7329.6909 308.5050 7.2586 98.5071 30590.6285 7.2586 98.5071
ENERGY: 300000 1.9270 10.5904 1.3819 0.0000 -10693.4755 1487.5816 0.0000 0.0000 1731.6823 -7460.3124 295.1472 -9191.9947 -7391.9494 302.9831 475.5164 509.6672 30091.7376 98.6609 147.3216
ENERGY: 600000 3.1333 9.4790 4.4140 0.0000 -10709.3666 1438.7708 0.0000 0.0000 1752.7070 -7500.8626 298.7307 -9253.5696 -7427.2218 300.8987 -165.0478 -7.8784 30093.8300 -163.7463 -95.5174
ENERGY: 900000 2.0851 9.7880 2.4560 0.0000 -10728.2598 1479.2668 0.0000 0.0000 1811.7262 -7422.9378 308.7899 -9234.6640 -7416.8227 302.3493 303.8772 459.3636 30023.0054 -172.3814 -99.1119
ENERGY: 1200000 2.5905 9.3955 4.2924 0.0000 -10655.6555 1420.4271 0.0000 0.0000 1786.7470 -7432.2031 304.5324 -9218.9501 -7418.3358 302.3408 -59.3380 -41.5441 30149.0429 -84.0633 -12.5545
ENERGY: 1500000 4.0635 5.7131 8.9238 0.0000 -10664.1805 1498.6420 0.0000 0.0000 1818.5954 -7328.2427 309.9607 -9146.8381 -7418.0329 301.4515 767.2303 835.7719 30056.7774 -14.0677 56.1973
TCL: Running FEP window  18: Lambda1 0.1499999999999997 Lambda2 0.09999999999999969 [dLambda -0.05 ]
TCL: Setting parameter firsttimestep to 0
TCL: Setting parameter alchLambda to 0.1499999999999997
Info: NONBONDED TABLE R-SQUARED SPACING: 0.0625
Info: NONBONDED TABLE SIZE: 705 POINTS
TCL: Setting parameter alchLambda2 to 0.09999999999999969
Info: NONBONDED TABLE R-SQUARED SPACING: 0.0625
Info: NONBONDED TABLE SIZE: 705 POINTS
TCL: Running for 1500000 steps
ETITLE: TS BOND ANGLE DIHED IMPRP ELECT VDW BOUNDARY MISC KINETIC TOTAL TEMP POTENTIAL TOTALAVG TEMPAVG PRESSURE GPRESSURE VOLUME PRESSAVG GPRESSAVG
ENERGY: 0 4.0635 5.7131 8.9238 0.0000 -10664.1822 1498.7848 0.0000 0.0000 1817.7133 -7328.9837 309.8103 -9146.6970 -7328.9837 309.8103 745.1407 830.1191 30056.7774 745.1407 830.1191
ENERGY: 300000 3.5907 9.8660 3.0336 0.0000 -10669.9945 1479.1844 0.0000 0.0000 1796.3368 -7377.9830 306.1669 -9174.3197 -7381.3860 303.7379 426.1963 568.1432 30131.9750 95.0910 189.9354
ENERGY: 600000 2.5669 11.5024 3.9623 0.0000 -10699.5891 1514.6439 0.0000 0.0000 1729.4672 -7437.4463 294.7697 -9166.9135 -7408.7532 300.4380 727.9254 749.2400 30153.3722 98.7321 168.9602
ENERGY: 900000 3.2118 8.4688 2.1361 0.0000 -10780.3538 1454.7932 0.0000 0.0000 1785.6865 -7526.0574 304.3517 -9311.7439 -7416.9778 301.7429 -134.9417 -125.1324 30011.3240 41.1870 104.1918
ENERGY: 1200000 1.9666 9.5585 3.0796 0.0000 -10666.2038 1403.9400 0.0000 0.0000 1828.2167 -7419.4424 311.6005 -9247.6591 -7421.3590 301.4785 -273.4658 -165.7218 29957.1584 28.7379 93.6224
ENERGY: 1500000 1.2702 12.2325 5.0033 0.0000 -10785.4837 1507.4492 0.0000 0.0000 1745.7864 -7513.7422 297.5511 -9259.5286 -7425.1327 301.2149 470.6836 536.1996 29796.5325 2.8992 67.9077
TCL: Running FEP window  19: Lambda1 0.09999999999999969 Lambda2 0.049999999999999684 [dLambda -0.05 ]
TCL: Setting parameter firsttimestep to 0
TCL: Setting parameter alchLambda to 0.09999999999999969
Info: NONBONDED TABLE R-SQUARED SPACING: 0.0625
Info: NONBONDED TABLE SIZE: 705 POINTS
TCL: Setting parameter alchLambda2 to 0.049999999999999684
Info: NONBONDED TABLE R-SQUARED SPACING: 0.0625
Info: NONBONDED TABLE SIZE: 705 POINTS
TCL: Running for 1500000 steps
ETITLE: TS BOND ANGLE DIHED IMPRP ELECT VDW BOUNDARY MISC KINETIC TOTAL TEMP POTENTIAL TOTALAVG TEMPAVG PRESSURE GPRESSURE VOLUME PRESSAVG GPRESSAVG
ENERGY: 0 1.2701 12.2325 5.0033 0.0000 -10785.4837 1507.9113 0.0000 0.0000 1744.8839 -7514.1826 297.3973 -9259.0665 -7514.1826 297.3973 457.5164 534.0378 29796.5325 457.5164 534.0378
ENERGY: 300000 1.9933 12.4150 4.7747 0.0000 -10645.8987 1446.5836 0.0000 0.0000 1710.3092 -7469.8227 291.5044 -9180.1320 -7476.2357 295.6887 93.5804 157.6230 30355.1009 -107.0662 -29.4155
ENERGY: 600000 1.7388 9.0121 2.5320 0.0000 -10685.8870 1424.1616 0.0000 0.0000 1764.3805 -7484.0620 300.7203 -9248.4425 -7470.0794 297.7557 -405.3139 -380.3813 30351.0488 44.7703 125.6487
ENERGY: 900000 1.2543 7.6504 3.2067 0.0000 -10747.6451 1474.0770 0.0000 0.0000 1838.6660 -7422.7907 313.3815 -9261.4567 -7442.2214 301.0468 46.7830 158.9576 30149.8438 114.6281 191.1567
ENERGY: 1200000 1.0524 8.1176 4.3704 0.0000 -10612.7378 1442.6319 0.0000 0.0000 1787.1212 -7369.4443 304.5962 -9156.5655 -7434.3000 300.1475 225.3010 286.7014 30284.3725 0.4665 69.7572
ENERGY: 1500000 3.1092 9.3314 2.7945 0.0000 -10644.1818 1453.9215 0.0000 0.0000 1799.4289 -7375.5963 306.6939 -9175.0251 -7428.2995 300.8055 478.8571 526.7397 29745.1888 3.2965 71.6109
TCL: Running FEP window  20: Lambda1 0.049999999999999684 Lambda2 0.0    [dLambda -0.049999999999999684]
TCL: Setting parameter firsttimestep to 0
TCL: Setting parameter alchLambda to 0.049999999999999684
Info: NONBONDED TABLE R-SQUARED SPACING: 0.0625
Info: NONBONDED TABLE SIZE: 705 POINTS
TCL: Setting parameter alchLambda2 to 0.0
Info: NONBONDED TABLE R-SQUARED SPACING: 0.0625
Info: NONBONDED TABLE SIZE: 705 POINTS
TCL: Running for 1500000 steps
ETITLE: TS BOND ANGLE DIHED IMPRP ELECT VDW BOUNDARY MISC KINETIC TOTAL TEMP POTENTIAL TOTALAVG TEMPAVG PRESSURE GPRESSURE VOLUME PRESSAVG GPRESSAVG
ENERGY: 0 3.1092 9.3314 2.7945 0.0000 -10644.1817 1453.5957 0.0000 0.0000 1798.5844 -7376.7666 306.5500 -9175.3509 -7376.7666 306.5500 440.3568 526.9840 29745.1888 440.3568 526.9840
ENERGY: 300000 4.1933 8.7978 3.7534 0.0000 -10605.7833 1339.1196 0.0000 0.0000 1742.1550 -7507.7641 296.9322 -9249.9191 -7438.6767 298.4740 -942.5634 -922.4616 30082.6394 -321.2570 -253.8358
ENERGY: 600000 1.0639 11.3015 3.6989 0.0000 -10741.8364 1461.7794 0.0000 0.0000 1739.2142 -7524.7785 296.4310 -9263.9927 -7439.4668 298.2149 -101.7502 -61.7375 30171.5707 -171.6788 -108.6728
ENERGY: 900000 2.9997 8.0318 2.4398 0.0000 -10774.4875 1507.4628 0.0000 0.0000 1753.2834 -7500.2700 298.8289 -9253.5534 -7446.0406 298.6930 273.4065 363.1385 30207.0347 -156.4425 -85.8411
ENERGY: 1200000 1.7951 7.9198 4.3544 0.0000 -10417.4672 1292.9521 0.0000 0.0000 1790.1288 -7320.3170 305.1088 -9110.4457 -7435.0665 299.6811 -1262.4336 -1143.3377 30581.0612 -268.1884 -194.7974
ENERGY: 1500000 3.6976 4.7946 2.5833 0.0000 -10641.1904 1411.4825 0.0000 0.0000 1759.7464 -7458.8859 299.9305 -9218.6323 -7434.6678 298.8990 -338.1251 -260.4856 30148.2247 -264.7090 -187.2715
TCL: Exiting due to exit command.
