Info: SIMULATION PARAMETERS:
Info: TIMESTEP               2
Info: NUMBER OF STEPS        0
Info: STEPS PER CYCLE        10
Info: PERIODIC CELL BASIS 1  31.4313 0 0
Info: PERIODIC CELL BASIS 2  0 34.6945 0
Info: PERIODIC CELL BASIS 3  0 0 28.255
Info: PERIODIC CELL CENTER   0 0 0
Info: WRAPPING WATERS AROUND PERIODIC BOUNDARIES ON OUTPUT.
Info: WRAPPING ALL CLUSTERS AROUND PERIODIC BOUNDARIES ON OUTPUT.
Info: FIRST LDB TIMESTEP     50
Info: LAST LDB TIMESTEP     -1
Info: HOM BACKGROUND SCALING 1
Info: PME BACKGROUND SCALING 1
Info: MIN ATOMS PER PATCH    40
Info: EMPTY PATCH LOAD       40 ATOMS
Info: VELOCITY FILE          mobley_4759887_equil.vel
Info: CENTER OF MASS MOVING INITIALLY? NO
Info: DIELECTRIC             1
Info: EXCLUDE                SCALED ONE-FOUR
Info: 1-4 ELECTROSTATICS SCALED BY 0.833333
Info: MODIFIED 1-4 VDW PARAMETERS WILL BE USED
Info: DCD FILENAME           mobley_4759887_prod.dcd
Info: DCD FREQUENCY          100000
Info: DCD FIRST STEP         100000
Info: DCD FILE WILL CONTAIN UNIT CELL DATA
Info: XST FILENAME           mobley_4759887_prod.xst
Info: XST FREQUENCY          100000
Info: NO VELOCITY DCD OUTPUT
Info: NO FORCE DCD OUTPUT
Info: OUTPUT FILENAME        mobley_4759887_prod
Info: BINARY OUTPUT FILES WILL BE USED
Info: RESTART FILENAME       mobley_4759887_prod.restart
Info: RESTART FREQUENCY      100000
Info: BINARY RESTART FILES WILL BE USED
Info: CUTOFF                 9
Info: PAIRLIST DISTANCE      11
Info: PAIRLIST SHRINK RATE   0.01
Info: PAIRLIST GROW RATE     0.01
Info: PAIRLIST TRIGGER       0.3
Info: PAIRLISTS PER CYCLE    2
Info: PAIRLISTS ENABLED
Info: MARGIN                 2
Info: HYDROGEN GROUP CUTOFF  2.5
Info: PATCH DIMENSION        15.5
Info: ENERGY OUTPUT STEPS    100000
Info: ENERGY EVALUATION STEPS    100000
Info: OUTPUT ENERGY PRECISION 4
Info: CROSSTERM ENERGY INCLUDED IN DIHEDRAL
Info: TIMING OUTPUT STEPS    1000000
Info: PRESSURE OUTPUT STEPS  100000
Info: ALCHEMICAL FEP ON
Info: FEP CURRENT LAMBDA VALUE     0
Info: FEP COMPARISON LAMBDA VALUE  0.05
Info: FEP INTRA-ALCHEMICAL NON-BONDED INTERACTIONS WILL BE RETAINED
Info: FEP INTRA-ALCHEMICAL BONDED INTERACTIONS WILL BE RETAINED
Info: FEP VDW SHIFTING COEFFICIENT 5
Info: FEP ELEC. ACTIVE FOR ANNIHILATED PARTICLES BETWEEN LAMBDA = 0 AND LAMBDA = 0.5
Info: FEP ELEC. ACTIVE FOR EXNIHILATED PARTICLES BETWEEN LAMBDA = 0.5 AND LAMBDA = 1
Info: FEP VDW ACTIVE FOR ANNIHILATED PARTICLES BETWEEN LAMBDA = 0 AND LAMBDA = 1
Info: FEP VDW ACTIVE FOR EXNIHILATED PARTICLES BETWEEN LAMBDA = 0 AND LAMBDA = 1
Info: FEP BOND ACTIVE FOR ANNIHILATED PARTICLES BETWEEN LAMBDA = 1 AND LAMBDA = 1
Info: FEP BOND ACTIVE FOR EXNIHILATED PARTICLES BETWEEN LAMBDA = 0 AND LAMBDA = 0
Info: LANGEVIN DYNAMICS ACTIVE
Info: LANGEVIN TEMPERATURE   300
Info: LANGEVIN USING BBK INTEGRATOR
Info: LANGEVIN DAMPING COEFFICIENT IS 1 INVERSE PS
Info: LANGEVIN DYNAMICS APPLIED TO HYDROGENS
Info: LANGEVIN PISTON PRESSURE CONTROL ACTIVE
Info:        TARGET PRESSURE IS 1.01325 BAR
Info:     OSCILLATION PERIOD IS 50 FS
Info:             DECAY TIME IS 25 FS
Info:     PISTON TEMPERATURE IS 300 K
Info:       PRESSURE CONTROL IS GROUP-BASED
Info:    INITIAL STRAIN RATE IS 0.000471939 0.000471939 0.000471939
Info:       CELL FLUCTUATION IS ISOTROPIC
Info: PARTICLE MESH EWALD (PME) ACTIVE
Info: PME TOLERANCE               1e-06
Info: PME EWALD COEFFICIENT       0.348832
Info: PME INTERPOLATION ORDER     4
Info: PME GRID DIMENSIONS         32 36 32
Info: PME MAXIMUM GRID SPACING    1
Info: PME CALCULATION WILL BE PERFORMED ON GPU
Info: FULL ELECTROSTATIC EVALUATION FREQUENCY      2
Info: USING VERLET I (r-RESPA) MTS SCHEME.
Info: C1 SPLITTING OF LONG RANGE ELECTROSTATICS
Info: PLACING ATOMS IN PATCHES BY HYDROGEN GROUPS
Info: RIGID BONDS TO HYDROGEN : ALL
Info:         ERROR TOLERANCE : 1e-08
Info:          MAX ITERATIONS : 100
Info: RIGID WATER USING SETTLE ALGORITHM
Info: RANDOM NUMBER SEED     1744011288
Info: USE HYDROGEN BONDS?    NO
Info: Using AMBER format force field!
Info: AMBER PARM FILE        mobley_4759887.prmtop
Info: COORDINATE PDB         mobley_4759887.pdb
Info: Exclusions will be read from PARM file!
Info: SCNB (VDW SCALING)     2
Info: USING ARITHMETIC MEAN TO COMBINE L-J SIGMA PARAMETERS
Info: BINARY COORDINATES     mobley_4759887_equil.coor
Info: SUMMARY OF PARAMETERS:
Info: 6 BONDS
Info: 7 ANGLES
Info:   7 HARMONIC
Info:   0 COSINE-BASED
Info: 6 DIHEDRAL
Info: 0 IMPROPER
Info: 0 CROSSTERM
Info: 0 VDW
Info: 21 VDW_PAIRS
Info: 0 NBTHOLE_PAIRS
Info: To read alchdata from file: mobley_4759887.pdb
Info: To read alchflag data from column: 5
Info: STRUCTURE SUMMARY:
Info: 2960 ATOMS
Info: 2959 BONDS
Info: 42 ANGLES
Info: 62 DIHEDRALS
Info: 0 IMPROPERS
Info: 0 CROSSTERMS
Info: 3055 EXCLUSIONS
Info: 2952 RIGID BONDS
Info: ALCH: 0 ATOMS TO DISAPPEAR IN FINAL STATE
Info: ALCH: 23 ATOMS TO APPEAR IN FINAL STATE
Info: 5928 DEGREES OF FREEDOM
Info: 987 HYDROGEN GROUPS
Info: 4 ATOMS IN LARGEST HYDROGEN GROUP
Info: 987 MIGRATION GROUPS
Info: 4 ATOMS IN LARGEST MIGRATION GROUP
Info: TOTAL MASS = 17863.8 amu
Info: TOTAL CHARGE = 3.72529e-09 e
Info: MASS DENSITY = 0.962751 g/cm^3
Info: ATOM DENSITY = 0.0960669 atoms/A^3
Info: ADDED 0 IMPLICIT EXCLUSIONS
Info: NONBONDED TABLE R-SQUARED SPACING: 0.0625
Info: NONBONDED TABLE SIZE: 705 POINTS
Info: REDUCING NUMBER OF PATCHES TO IMPROVE LOAD BALANCE
Info: REMOVING COM VELOCITY -0.0163297 0.0312003 0.105372
Info: Use 3D box decompostion in PME FFT.
Info: Updated CUDA force table with 4096 elements.
Info: Updated CUDA LJ table with 6 x 6 elements.
Info: Found 26 unique exclusion lists needing 84 bytes
TCL: Running for 1500000 steps
ETITLE: TS BOND ANGLE DIHED IMPRP ELECT VDW BOUNDARY MISC KINETIC TOTAL TEMP POTENTIAL TOTALAVG TEMPAVG PRESSURE GPRESSURE VOLUME PRESSAVG GPRESSAVG
ENERGY: 0 1.4725 6.8314 3.3377 0.0000 -10603.0537 1406.1867 0.0000 0.0000 1740.1405 -7445.0848 295.4381 -9185.2253 -7445.0848 295.4381 -438.3783 -362.5254 30811.8558 -438.3783 -362.5254
ENERGY: 300000 3.6846 9.3251 4.3941 0.0000 -10603.4906 1401.2739 0.0000 0.0000 1737.4275 -7447.3854 294.9775 -9184.8129 -7465.2916 298.0740 -269.4109 -239.5232 30505.1847 -537.3818 -489.7891
ENERGY: 600000 1.7732 10.2308 3.8866 0.0000 -10772.1365 1511.3798 0.0000 0.0000 1787.0192 -7457.8468 303.3971 -9244.8660 -7465.5343 299.1292 562.1346 702.1653 29976.6715 -117.3680 -65.6615
ENERGY: 900000 4.2889 12.8024 3.1224 0.0000 -10627.3335 1384.1291 0.0000 0.0000 1716.2555 -7506.7354 291.3829 -9222.9908 -7468.6870 299.0202 -383.4775 -319.4535 30011.7040 -142.1602 -78.8435
ENERGY: 1200000 2.2035 12.0068 5.6733 0.0000 -10628.2181 1379.7922 0.0000 0.0000 1751.0586 -7477.4836 297.2918 -9228.5422 -7467.5589 299.0000 -691.4891 -634.5518 30670.9626 -204.0010 -145.1717
ENERGY: 1500000 1.9527 11.0460 3.6071 0.0000 -10940.7529 1504.1911 0.0000 0.0000 1735.5804 -7684.3756 294.6639 -9419.9560 -7479.0408 299.4718 -32.8885 4.9703 30063.0823 -167.3377 -111.2534
TCL: Running FEP window   2: Lambda1 0.05   Lambda2 0.1    [dLambda 0.05  ]
TCL: Setting parameter firsttimestep to 0
TCL: Setting parameter alchLambda to 0.05
Info: NONBONDED TABLE R-SQUARED SPACING: 0.0625
Info: NONBONDED TABLE SIZE: 705 POINTS
TCL: Setting parameter alchLambda2 to 0.1
Info: NONBONDED TABLE R-SQUARED SPACING: 0.0625
Info: NONBONDED TABLE SIZE: 705 POINTS
TCL: Running for 1500000 steps
ETITLE: TS BOND ANGLE DIHED IMPRP ELECT VDW BOUNDARY MISC KINETIC TOTAL TEMP POTENTIAL TOTALAVG TEMPAVG PRESSURE GPRESSURE VOLUME PRESSAVG GPRESSAVG
ENERGY: 0 1.9527 11.0460 3.6071 0.0000 -10940.7529 1509.4745 0.0000 0.0000 1734.7347 -7679.9379 294.5203 -9414.6726 -7679.9379 294.5203 -66.9176 18.7800 30063.0823 -66.9176 18.7800
ENERGY: 300000 2.9629 12.8622 5.5650 0.0000 -10714.7505 1424.0091 0.0000 0.0000 1813.3460 -7456.0054 307.8668 -9269.3513 -7507.3418 300.2257 -355.7950 -328.2036 30309.8010 94.7024 162.2407
ENERGY: 600000 2.3645 9.4936 4.3583 0.0000 -10531.6872 1392.8326 0.0000 0.0000 1745.2761 -7377.3621 296.3100 -9122.6382 -7461.3541 299.5354 -10.9265 33.5832 30662.9586 18.5285 75.8655
ENERGY: 900000 1.4261 12.4099 3.4847 0.0000 -10781.4221 1509.4648 0.0000 0.0000 1749.1491 -7505.4875 296.9676 -9254.6366 -7480.1166 299.3982 718.1586 730.5034 29623.7401 198.6695 252.3362
ENERGY: 1200000 3.3112 7.6738 3.2509 0.0000 -10635.4346 1397.8787 0.0000 0.0000 1783.6576 -7439.6623 302.8264 -9223.3199 -7475.0957 299.7667 -536.5785 -484.0354 30523.1515 98.9049 160.4687
ENERGY: 1500000 1.7194 11.6569 4.5720 0.0000 -10821.4373 1553.1705 0.0000 0.0000 1758.4945 -7491.8240 298.5542 -9250.3185 -7463.4720 300.6369 649.1992 773.2424 30067.2750 124.5660 198.4278
TCL: Running FEP window   3: Lambda1 0.1    Lambda2 0.15000000000000002 [dLambda 0.05000000000000002]
TCL: Setting parameter firsttimestep to 0
TCL: Setting parameter alchLambda to 0.1
Info: NONBONDED TABLE R-SQUARED SPACING: 0.0625
Info: NONBONDED TABLE SIZE: 705 POINTS
TCL: Setting parameter alchLambda2 to 0.15000000000000002
Info: NONBONDED TABLE R-SQUARED SPACING: 0.0625
Info: NONBONDED TABLE SIZE: 705 POINTS
TCL: Running for 1500000 steps
ETITLE: TS BOND ANGLE DIHED IMPRP ELECT VDW BOUNDARY MISC KINETIC TOTAL TEMP POTENTIAL TOTALAVG TEMPAVG PRESSURE GPRESSURE VOLUME PRESSAVG GPRESSAVG
ENERGY: 0 1.7194 11.6569 4.5720 0.0000 -10821.4366 1554.2953 0.0000 0.0000 1757.6232 -7491.5698 298.4063 -9249.1929 -7491.5698 298.4063 706.2930 784.3836 30067.2750 706.2930 784.3836
ENERGY: 300000 0.8113 7.8419 3.2361 0.0000 -10727.3987 1436.9168 0.0000 0.0000 1752.1201 -7526.4725 297.4720 -9278.5926 -7527.5525 299.9212 -116.5547 -46.9218 30350.6078 272.3004 354.8959
ENERGY: 600000 1.4947 14.6108 3.7994 0.0000 -10667.7453 1436.1980 0.0000 0.0000 1784.9292 -7426.7132 303.0422 -9211.6423 -7480.3347 300.7418 -124.7626 -24.0890 30389.0444 245.2657 315.6129
ENERGY: 900000 0.2243 5.7586 3.3423 0.0000 -10723.9123 1397.1630 0.0000 0.0000 1701.5577 -7615.8665 288.8876 -9317.4241 -7495.3989 298.7686 -480.8260 -414.1127 30031.4604 109.7872 180.6643
ENERGY: 1200000 2.6450 9.1019 3.8179 0.0000 -10755.1764 1514.3278 0.0000 0.0000 1736.6176 -7488.6663 294.8400 -9225.2839 -7486.4660 299.1700 581.4051 679.7832 30026.9676 158.3127 234.6286
ENERGY: 1500000 3.6737 15.4741 3.0010 0.0000 -10786.3879 1482.6834 0.0000 0.0000 1738.0242 -7543.5315 295.0788 -9281.5558 -7491.5736 298.8980 53.0127 122.8537 30096.7339 191.6677 263.3241
TCL: Running FEP window   4: Lambda1 0.15000000000000002 Lambda2 0.2    [dLambda 0.04999999999999999]
TCL: Setting parameter firsttimestep to 0
TCL: Setting parameter alchLambda to 0.15000000000000002
Info: NONBONDED TABLE R-SQUARED SPACING: 0.0625
Info: NONBONDED TABLE SIZE: 705 POINTS
TCL: Setting parameter alchLambda2 to 0.2
Info: NONBONDED TABLE R-SQUARED SPACING: 0.0625
Info: NONBONDED TABLE SIZE: 705 POINTS
TCL: Running for 1500000 steps
ETITLE: TS BOND ANGLE DIHED IMPRP ELECT VDW BOUNDARY MISC KINETIC TOTAL TEMP POTENTIAL TOTALAVG TEMPAVG PRESSURE GPRESSURE VOLUME PRESSAVG GPRESSAVG
ENERGY: 0 3.6737 15.4741 3.0010 0.0000 -10786.3881 1485.9130 0.0000 0.0000 1737.1285 -7541.1979 294.9267 -9278.3263 -7541.1979 294.9267 49.3139 140.5541 30096.7339 49.3139 140.5541
ENERGY: 300000 1.6128 7.2656 3.9801 0.0000 -10718.1745 1449.9840 0.0000 0.0000 1798.0730 -7457.2591 305.2738 -9255.3321 -7466.0107 302.0417 -149.4288 -64.1160 30227.6436 -32.1308 45.2595
ENERGY: 600000 2.0487 7.6207 2.9480 0.0000 -10774.1754 1497.2234 0.0000 0.0000 1797.0510 -7467.2836 305.1003 -9264.3346 -7475.4653 302.0842 78.7706 194.2772 30996.4180 65.5691 142.8755
ENERGY: 900000 0.6664 9.0109 4.0473 0.0000 -10782.8637 1473.8615 0.0000 0.0000 1746.4653 -7548.8122 296.5119 -9295.2775 -7481.8758 301.7697 -99.0835 -93.6738 30555.3070 -86.7080 -16.9623
ENERGY: 1200000 0.5425 11.1171 5.3447 0.0000 -10474.9512 1280.1903 0.0000 0.0000 1770.9120 -7406.8447 300.6624 -9177.7567 -7475.2651 301.1063 -1150.5499 -1046.9095 30452.7944 -162.6447 -87.7702
ENERGY: 1500000 1.2427 11.2038 3.9887 0.0000 -10816.3054 1489.5766 0.0000 0.0000 1763.0042 -7547.2893 299.3199 -9310.2935 -7483.6630 301.6968 -94.0243 55.3833 30526.9784 -170.9947 -90.3818
TCL: Running FEP window   5: Lambda1 0.2    Lambda2 0.25   [dLambda 0.04999999999999999]
TCL: Setting parameter firsttimestep to 0
TCL: Setting parameter alchLambda to 0.2
Info: NONBONDED TABLE R-SQUARED SPACING: 0.0625
Info: NONBONDED TABLE SIZE: 705 POINTS
TCL: Setting parameter alchLambda2 to 0.25
Info: NONBONDED TABLE R-SQUARED SPACING: 0.0625
Info: NONBONDED TABLE SIZE: 705 POINTS
TCL: Running for 1500000 steps
ETITLE: TS BOND ANGLE DIHED IMPRP ELECT VDW BOUNDARY MISC KINETIC TOTAL TEMP POTENTIAL TOTALAVG TEMPAVG PRESSURE GPRESSURE VOLUME PRESSAVG GPRESSAVG
ENERGY: 0 1.2427 11.2038 3.9887 0.0000 -10816.3073 1489.6109 0.0000 0.0000 1762.1088 -7548.1524 299.1678 -9310.2612 -7548.1524 299.1678 -36.5279 58.5152 30526.9784 -36.5279 58.5152
ENERGY: 300000 3.6525 11.6695 5.5274 0.0000 -10720.8856 1461.2303 0.0000 0.0000 1721.6984 -7517.1076 292.3070 -9238.8060 -7483.5860 300.4606 -103.4923 -64.0629 30401.1568 -257.4224 -174.5578
ENERGY: 600000 5.3661 13.3347 2.7382 0.0000 -10615.2150 1403.1221 0.0000 0.0000 1759.2757 -7431.3783 298.6869 -9190.6541 -7461.6950 302.8628 -350.0662 -331.1066 30641.1421 -190.8202 -125.9825
ENERGY: 900000 2.5715 6.1592 3.4223 0.0000 -10662.5580 1396.5158 0.0000 0.0000 1818.7182 -7435.1711 308.7789 -9253.8893 -7457.3833 303.3621 -189.9222 -158.0333 29875.6909 -172.4498 -112.1468
ENERGY: 1200000 1.6954 9.0210 2.5986 0.0000 -10635.5794 1423.9735 0.0000 0.0000 1766.9240 -7431.3668 299.9854 -9198.2908 -7455.4815 302.6296 -301.6789 -242.3563 30521.0998 -186.2451 -121.5180
ENERGY: 1500000 1.1574 11.0157 3.3451 0.0000 -10681.7913 1474.8033 0.0000 0.0000 1741.8169 -7449.6528 295.7227 -9191.4697 -7456.9345 301.9128 339.4192 469.3688 29979.3836 -240.0940 -167.3138
TCL: Running FEP window   6: Lambda1 0.25   Lambda2 0.3    [dLambda 0.04999999999999999]
TCL: Setting parameter firsttimestep to 0
TCL: Setting parameter alchLambda to 0.25
Info: NONBONDED TABLE R-SQUARED SPACING: 0.0625
Info: NONBONDED TABLE SIZE: 705 POINTS
TCL: Setting parameter alchLambda2 to 0.3
Info: NONBONDED TABLE R-SQUARED SPACING: 0.0625
Info: NONBONDED TABLE SIZE: 705 POINTS
TCL: Running for 1500000 steps
ETITLE: TS BOND ANGLE DIHED IMPRP ELECT VDW BOUNDARY MISC KINETIC TOTAL TEMP POTENTIAL TOTALAVG TEMPAVG PRESSURE GPRESSURE VOLUME PRESSAVG GPRESSAVG
ENERGY: 0 1.1574 11.0157 3.3451 0.0000 -10681.7910 1477.3031 0.0000 0.0000 1740.9579 -7448.0117 295.5769 -9188.9696 -7448.0117 295.5769 401.2723 486.7606 29979.3836 401.2723 486.7606
ENERGY: 300000 2.1663 8.1753 2.2582 0.0000 -10608.8117 1405.8922 0.0000 0.0000 1764.8999 -7425.4196 299.6417 -9190.3195 -7473.8868 297.6979 -99.5892 -30.8547 30317.2537 109.0996 177.9533
ENERGY: 600000 3.2302 7.9470 2.2227 0.0000 -10634.0983 1454.4897 0.0000 0.0000 1759.7510 -7406.4577 298.7675 -9166.2087 -7444.0261 297.6681 405.9810 444.2108 30122.3621 156.3775 224.0489
ENERGY: 900000 2.4167 8.4425 4.5318 0.0000 -10813.1848 1538.0702 0.0000 0.0000 1778.6945 -7481.0290 301.9837 -9259.7234 -7449.0531 298.2662 633.8977 672.2642 30628.0475 76.2962 147.0805
ENERGY: 1200000 1.4252 14.5227 2.7892 0.0000 -10883.9046 1568.5054 0.0000 0.0000 1795.6558 -7501.0062 304.8634 -9296.6620 -7459.9182 298.9022 1063.8106 1047.5288 30024.6068 136.4855 200.9208
ENERGY: 1500000 0.9107 14.8178 4.1322 0.0000 -10740.1317 1465.0554 0.0000 0.0000 1780.8928 -7474.3228 302.3570 -9255.2156 -7470.0709 299.5594 257.8483 349.6546 29996.0169 185.8578 251.6377
TCL: Running FEP window   7: Lambda1 0.3    Lambda2 0.35   [dLambda 0.04999999999999999]
TCL: Setting parameter firsttimestep to 0
TCL: Setting parameter alchLambda to 0.3
Info: NONBONDED TABLE R-SQUARED SPACING: 0.0625
Info: NONBONDED TABLE SIZE: 705 POINTS
TCL: Setting parameter alchLambda2 to 0.35
Info: NONBONDED TABLE R-SQUARED SPACING: 0.0625
Info: NONBONDED TABLE SIZE: 705 POINTS
TCL: Running for 1500000 steps
ETITLE: TS BOND ANGLE DIHED IMPRP ELECT VDW BOUNDARY MISC KINETIC TOTAL TEMP POTENTIAL TOTALAVG TEMPAVG PRESSURE GPRESSURE VOLUME PRESSAVG GPRESSAVG
ENERGY: 0 0.9107 14.8178 4.1322 0.0000 -10740.1308 1464.7012 0.0000 0.0000 1780.0152 -7475.5539 302.2080 -9255.5690 -7475.5539 302.2080 262.9263 355.1929 29996.0169 262.9263 355.1929
ENERGY: 300000 1.3503 16.3629 3.4172 0.0000 -10775.0540 1481.8925 0.0000 0.0000 1809.5980 -7462.4332 307.2305 -9272.0312 -7457.2595 304.3658 251.2037 271.9709 30233.2843 160.1106 228.0835
ENERGY: 600000 1.3499 11.6166 3.3862 0.0000 -10482.0584 1329.8758 0.0000 0.0000 1801.8503 -7333.9796 305.9151 -9135.8299 -7435.0156 303.2714 -735.6148 -677.5606 30961.2278 85.6420 154.2718
ENERGY: 900000 0.7812 10.4022 2.6782 0.0000 -10712.8475 1458.1204 0.0000 0.0000 1737.1901 -7503.6754 294.9372 -9240.8655 -7457.4034 300.5540 76.6705 174.5692 30514.3114 54.2494 128.5415
ENERGY: 1200000 2.9667 6.2848 2.7347 0.0000 -10617.0697 1390.6099 0.0000 0.0000 1781.8193 -7432.6543 302.5143 -9214.4735 -7460.3188 299.9197 -342.3752 -225.8073 30480.1988 -60.1633 15.4982
ENERGY: 1500000 1.0144 8.0918 3.6939 0.0000 -10807.0139 1512.2028 0.0000 0.0000 1789.4397 -7492.5713 303.8080 -9282.0109 -7461.8303 299.8382 678.1848 811.6038 29947.5790 60.1451 140.3009
TCL: Running FEP window   8: Lambda1 0.35   Lambda2 0.39999999999999997 [dLambda 0.04999999999999999]
TCL: Setting parameter firsttimestep to 0
TCL: Setting parameter alchLambda to 0.35
Info: NONBONDED TABLE R-SQUARED SPACING: 0.0625
Info: NONBONDED TABLE SIZE: 705 POINTS
TCL: Setting parameter alchLambda2 to 0.39999999999999997
Info: NONBONDED TABLE R-SQUARED SPACING: 0.0625
Info: NONBONDED TABLE SIZE: 705 POINTS
TCL: Running for 1500000 steps
ETITLE: TS BOND ANGLE DIHED IMPRP ELECT VDW BOUNDARY MISC KINETIC TOTAL TEMP POTENTIAL TOTALAVG TEMPAVG PRESSURE GPRESSURE VOLUME PRESSAVG GPRESSAVG
ENERGY: 0 1.0144 8.0918 3.6939 0.0000 -10807.0136 1511.8404 0.0000 0.0000 1788.5515 -7493.8216 303.6572 -9282.3731 -7493.8216 303.6572 734.8964 816.7841 29947.5790 734.8964 816.7841
ENERGY: 300000 0.7535 14.0215 4.5837 0.0000 -10427.9391 1308.3943 0.0000 0.0000 1736.0628 -7364.1233 294.7458 -9100.1861 -7415.4746 300.6146 -681.5232 -636.4991 30494.8739 -189.1992 -143.1911
ENERGY: 600000 5.0191 15.6583 6.4550 0.0000 -10605.2610 1380.9886 0.0000 0.0000 1761.2349 -7435.9051 299.0195 -9197.1400 -7435.1398 299.6659 -572.0980 -501.4159 30695.3187 -163.8280 -109.1391
ENERGY: 900000 1.2985 10.8312 2.9629 0.0000 -10677.1571 1423.4188 0.0000 0.0000 1819.1933 -7419.4525 308.8595 -9238.6458 -7431.2484 302.0747 -47.8480 22.6907 30173.0672 -237.6234 -180.8837
ENERGY: 1200000 1.9467 10.8908 5.4161 0.0000 -10584.4016 1342.2522 0.0000 0.0000 1779.3569 -7444.5388 302.0962 -9223.8957 -7429.8204 302.1923 -830.9480 -757.2023 30504.7745 -243.2371 -172.5317
ENERGY: 1500000 3.7431 9.6692 2.8215 0.0000 -10723.5518 1470.9507 0.0000 0.0000 1769.3638 -7467.0036 300.3996 -9236.3673 -7445.0825 301.3066 101.9600 165.2728 30521.8967 -240.6398 -170.0164
TCL: Running FEP window   9: Lambda1 0.39999999999999997 Lambda2 0.44999999999999996 [dLambda 0.04999999999999999]
TCL: Setting parameter firsttimestep to 0
TCL: Setting parameter alchLambda to 0.39999999999999997
Info: NONBONDED TABLE R-SQUARED SPACING: 0.0625
Info: NONBONDED TABLE SIZE: 705 POINTS
TCL: Setting parameter alchLambda2 to 0.44999999999999996
Info: NONBONDED TABLE R-SQUARED SPACING: 0.0625
Info: NONBONDED TABLE SIZE: 705 POINTS
TCL: Running for 1500000 steps
ETITLE: TS BOND ANGLE DIHED IMPRP ELECT VDW BOUNDARY MISC KINETIC TOTAL TEMP POTENTIAL TOTALAVG TEMPAVG PRESSURE GPRESSURE VOLUME PRESSAVG GPRESSAVG
ENERGY: 0 3.7431 9.6692 2.8215 0.0000 -10723.5524 1471.8764 0.0000 0.0000 1768.5265 -7466.9158 300.2574 -9235.4422 -7466.9158 300.2574 99.8492 183.2281 30521.8967 99.8492 183.2281
ENERGY: 300000 1.2564 11.5472 5.0129 0.0000 -10669.7827 1465.1454 0.0000 0.0000 1802.4713 -7384.3495 306.0205 -9186.8208 -7460.0220 300.3711 308.1338 378.3585 30204.6986 -71.7583 -11.8546
ENERGY: 600000 0.5979 9.3195 3.2211 0.0000 -10535.8756 1324.7671 0.0000 0.0000 1893.0372 -7304.9329 321.3966 -9197.9701 -7441.8499 302.5951 -610.2919 -589.3094 30879.8120 -76.3844 -15.1276
ENERGY: 900000 2.1563 9.8282 3.0425 0.0000 -10574.5328 1364.8084 0.0000 0.0000 1835.3690 -7359.3284 311.6058 -9194.6974 -7422.8677 303.0837 -568.8368 -529.4476 30949.3563 -164.9758 -117.0058
ENERGY: 1200000 1.5220 13.9340 2.5490 0.0000 -10770.6135 1502.4256 0.0000 0.0000 1760.2814 -7489.9015 298.8576 -9250.1829 -7439.7046 301.6677 388.2636 477.4209 30270.7310 -141.8380 -88.3407
ENERGY: 1500000 2.8106 8.6395 3.8508 0.0000 -10752.4712 1463.0624 0.0000 0.0000 1736.1532 -7537.9548 294.7611 -9274.1079 -7452.2075 300.6177 -156.4890 -53.9895 30404.4225 -173.4184 -115.9725
TCL: Running FEP window  10: Lambda1 0.44999999999999996 Lambda2 0.49999999999999994 [dLambda 0.04999999999999999]
TCL: Setting parameter firsttimestep to 0
TCL: Setting parameter alchLambda to 0.44999999999999996
Info: NONBONDED TABLE R-SQUARED SPACING: 0.0625
Info: NONBONDED TABLE SIZE: 705 POINTS
TCL: Setting parameter alchLambda2 to 0.49999999999999994
Info: NONBONDED TABLE R-SQUARED SPACING: 0.0625
Info: NONBONDED TABLE SIZE: 705 POINTS
TCL: Running for 1500000 steps
ETITLE: TS BOND ANGLE DIHED IMPRP ELECT VDW BOUNDARY MISC KINETIC TOTAL TEMP POTENTIAL TOTALAVG TEMPAVG PRESSURE GPRESSURE VOLUME PRESSAVG GPRESSAVG
ENERGY: 0 2.8106 8.6395 3.8508 0.0000 -10752.4708 1463.0231 0.0000 0.0000 1735.2699 -7538.8769 294.6112 -9274.1468 -7538.8769 294.6112 -124.7948 -45.4783 30404.4225 -124.7948 -45.4783
ENERGY: 300000 0.7278 14.0210 3.3729 0.0000 -10789.7531 1508.2280 0.0000 0.0000 1791.4602 -7471.9432 304.1511 -9263.4035 -7470.7351 301.9203 584.0984 692.8100 30111.6435 150.6738 230.8075
ENERGY: 600000 0.9509 12.8222 3.6232 0.0000 -10846.3513 1503.7230 0.0000 0.0000 1789.9340 -7535.2979 303.8920 -9325.2319 -7454.7120 304.0077 406.4240 473.7490 29901.9967 91.4135 181.5437
ENERGY: 900000 2.5676 7.6338 4.7163 0.0000 -10711.5747 1438.1220 0.0000 0.0000 1707.8707 -7550.6642 289.9594 -9258.5349 -7462.8610 301.7935 223.9259 260.9266 29992.5901 70.5196 150.5471
ENERGY: 1200000 5.2174 12.3049 4.3210 0.0000 -10721.3907 1458.8616 0.0000 0.0000 1807.5051 -7433.1808 306.8752 -9240.6859 -7459.9044 301.0153 -84.0002 -9.8929 30500.3338 89.3170 152.6239
ENERGY: 1500000 2.6932 10.3188 2.3578 0.0000 -10499.1349 1314.8747 0.0000 0.0000 1716.0189 -7452.8715 291.3428 -9168.8905 -7457.3665 300.4522 -981.9675 -1021.4629 30813.5700 -114.9302 -52.7610
TCL: Running FEP window  11: Lambda1 0.49999999999999994 Lambda2 0.5499999999999999 [dLambda 0.04999999999999999]
TCL: Setting parameter firsttimestep to 0
TCL: Setting parameter alchLambda to 0.49999999999999994
Info: NONBONDED TABLE R-SQUARED SPACING: 0.0625
Info: NONBONDED TABLE SIZE: 705 POINTS
TCL: Setting parameter alchLambda2 to 0.5499999999999999
Info: NONBONDED TABLE R-SQUARED SPACING: 0.0625
Info: NONBONDED TABLE SIZE: 705 POINTS
TCL: Running for 1500000 steps
ETITLE: TS BOND ANGLE DIHED IMPRP ELECT VDW BOUNDARY MISC KINETIC TOTAL TEMP POTENTIAL TOTALAVG TEMPAVG PRESSURE GPRESSURE VOLUME PRESSAVG GPRESSAVG
ENERGY: 0 2.6932 10.3188 2.3578 0.0000 -10499.1352 1314.3472 0.0000 0.0000 1715.1647 -7454.2535 291.1977 -9169.4182 -7454.2535 291.1977 -1093.0758 -1017.9720 30813.5700 -1093.0758 -1017.9720
ENERGY: 300000 3.2648 6.6996 4.9867 0.0000 -10727.1220 1472.6446 0.0000 0.0000 1727.0950 -7512.4312 293.2233 -9239.5263 -7453.1558 297.9926 90.3041 199.2964 30516.7013 -280.3031 -209.2185
ENERGY: 600000 0.9929 13.8437 2.9930 0.0000 -10654.6763 1348.7663 0.0000 0.0000 1769.2793 -7518.8011 300.3852 -9288.0803 -7472.2196 298.2001 -841.3354 -720.4935 30372.3520 -408.2997 -336.4637
ENERGY: 900000 1.8830 9.7282 3.0867 0.0000 -10656.4347 1481.8949 0.0000 0.0000 1798.9431 -7360.8988 305.4215 -9159.8419 -7468.3144 298.7595 633.2947 718.9717 30252.7438 -145.8675 -75.7761
ENERGY: 1200000 1.0031 10.0831 4.1100 0.0000 -10802.8736 1522.6594 0.0000 0.0000 1779.9384 -7485.0797 302.1949 -9265.0181 -7472.3585 298.3468 988.5914 1038.2800 29862.1936 -19.1427 48.1760
ENERGY: 1500000 2.0627 9.8762 2.6022 0.0000 -10579.3012 1389.5569 0.0000 0.0000 1792.5853 -7382.6179 304.3421 -9175.2032 -7467.3758 298.8549 -309.8136 -218.6355 30350.1653 -89.0918 -18.0557
TCL: Running FEP window  12: Lambda1 0.5499999999999999 Lambda2 0.6    [dLambda 0.050000000000000044]
TCL: Setting parameter firsttimestep to 0
TCL: Setting parameter alchLambda to 0.5499999999999999
Info: NONBONDED TABLE R-SQUARED SPACING: 0.0625
Info: NONBONDED TABLE SIZE: 705 POINTS
TCL: Setting parameter alchLambda2 to 0.6
Info: NONBONDED TABLE R-SQUARED SPACING: 0.0625
Info: NONBONDED TABLE SIZE: 705 POINTS
TCL: Running for 1500000 steps
ETITLE: TS BOND ANGLE DIHED IMPRP ELECT VDW BOUNDARY MISC KINETIC TOTAL TEMP POTENTIAL TOTALAVG TEMPAVG PRESSURE GPRESSURE VOLUME PRESSAVG GPRESSAVG
ENERGY: 0 2.0627 9.8762 2.6022 0.0000 -10579.1863 1389.6098 0.0000 0.0000 1791.7091 -7383.3263 304.1933 -9175.0354 -7383.3263 304.1933 -307.5957 -208.7935 30350.1653 -307.5957 -208.7935
ENERGY: 300000 5.3942 9.8342 2.8045 0.0000 -10722.5563 1467.5017 0.0000 0.0000 1747.1239 -7489.8978 296.6237 -9237.0217 -7441.9347 299.8120 253.9133 240.1108 30576.1798 -98.7229 -50.8576
ENERGY: 600000 3.8354 8.7423 3.2599 0.0000 -10609.0658 1364.1135 0.0000 0.0000 1741.2199 -7487.8949 295.6214 -9229.1148 -7448.7837 300.0445 -421.7765 -334.0875 30025.7323 -176.5216 -106.6801
ENERGY: 900000 1.2756 7.4350 4.4492 0.0000 -10594.9078 1389.9076 0.0000 0.0000 1759.1891 -7432.6513 298.6721 -9191.8404 -7441.4503 300.7551 41.9254 167.3519 29968.6529 -19.6868 47.9906
ENERGY: 1200000 2.6299 11.0054 2.9942 0.0000 -10689.1880 1394.8585 0.0000 0.0000 1759.1862 -7518.5139 298.6716 -9277.7000 -7436.9286 301.0181 -692.0753 -576.6126 30651.0700 -105.1243 -33.3759
ENERGY: 1500000 4.6293 10.0706 5.3587 0.0000 -10587.5424 1354.4254 0.0000 0.0000 1765.4472 -7447.6111 299.7346 -9213.0584 -7443.5478 300.0088 -577.0387 -554.7979 30509.2198 -182.0283 -114.5511
TCL: Running FEP window  13: Lambda1 0.6    Lambda2 0.65   [dLambda 0.050000000000000044]
TCL: Setting parameter firsttimestep to 0
TCL: Setting parameter alchLambda to 0.6
Info: NONBONDED TABLE R-SQUARED SPACING: 0.0625
Info: NONBONDED TABLE SIZE: 705 POINTS
TCL: Setting parameter alchLambda2 to 0.65
Info: NONBONDED TABLE R-SQUARED SPACING: 0.0625
Info: NONBONDED TABLE SIZE: 705 POINTS
TCL: Running for 1500000 steps
ETITLE: TS BOND ANGLE DIHED IMPRP ELECT VDW BOUNDARY MISC KINETIC TOTAL TEMP POTENTIAL TOTALAVG TEMPAVG PRESSURE GPRESSURE VOLUME PRESSAVG GPRESSAVG
ENERGY: 0 4.6294 10.0706 5.3587 0.0000 -10587.4741 1353.7436 0.0000 0.0000 1764.5548 -7449.1169 299.5831 -9213.6718 -7449.1169 299.5831 -640.9729 -547.6704 30509.2198 -640.9729 -547.6704
ENERGY: 300000 5.6654 7.5116 2.1560 0.0000 -10722.0523 1445.3805 0.0000 0.0000 1790.4653 -7470.8735 303.9822 -9261.3388 -7459.3095 298.1382 -4.0665 66.1542 30445.0190 -226.1881 -141.0443
ENERGY: 600000 0.5676 8.8531 3.9423 0.0000 -10805.4260 1505.5102 0.0000 0.0000 1741.1728 -7545.3801 295.6134 -9286.5529 -7469.0034 298.0064 783.9245 789.3099 29868.9290 -285.6808 -215.1236
ENERGY: 900000 2.9302 7.9273 4.6595 0.0000 -10701.7458 1455.6592 0.0000 0.0000 1806.6437 -7423.9259 306.7289 -9230.5696 -7465.2520 299.5967 -3.4501 119.1857 30380.5232 -239.2888 -166.7164
ENERGY: 1200000 3.6025 5.9283 3.2289 0.0000 -10566.1605 1326.4210 0.0000 0.0000 1802.0094 -7424.9703 305.9421 -9226.9797 -7466.4545 300.4639 -708.9113 -677.2965 30309.5512 -281.5601 -216.1677
ENERGY: 1500000 2.3893 13.2415 3.8413 0.0000 -10749.6735 1490.9757 0.0000 0.0000 1771.5455 -7467.6802 300.7700 -9239.2257 -7463.2990 301.6775 305.2403 331.2512 30499.1173 -215.3702 -152.5001
TCL: Running FEP window  14: Lambda1 0.65   Lambda2 0.7000000000000001 [dLambda 0.050000000000000044]
TCL: Setting parameter firsttimestep to 0
TCL: Setting parameter alchLambda to 0.65
Info: NONBONDED TABLE R-SQUARED SPACING: 0.0625
Info: NONBONDED TABLE SIZE: 705 POINTS
TCL: Setting parameter alchLambda2 to 0.7000000000000001
Info: NONBONDED TABLE R-SQUARED SPACING: 0.0625
Info: NONBONDED TABLE SIZE: 705 POINTS
TCL: Running for 1500000 steps
ETITLE: TS BOND ANGLE DIHED IMPRP ELECT VDW BOUNDARY MISC KINETIC TOTAL TEMP POTENTIAL TOTALAVG TEMPAVG PRESSURE GPRESSURE VOLUME PRESSAVG GPRESSAVG
ENERGY: 0 2.3893 13.2415 3.8413 0.0000 -10749.7392 1491.1537 0.0000 0.0000 1770.6595 -7468.4540 300.6196 -9239.1135 -7468.4540 300.6196 278.8714 345.1218 30499.1173 278.8714 345.1218
ENERGY: 300000 2.8380 12.7667 7.6357 0.0000 -10783.9721 1437.4266 0.0000 0.0000 1740.4192 -7582.8860 295.4854 -9323.3052 -7472.0559 302.4531 -176.9256 -112.3794 30411.8934 35.5689 101.1409
ENERGY: 600000 2.0714 9.0348 3.0309 0.0000 -10668.2032 1405.6286 0.0000 0.0000 1789.6339 -7458.8036 303.8410 -9248.4376 -7473.9847 301.8267 -318.1085 -265.4358 30476.1822 21.7192 74.8407
ENERGY: 900000 2.1422 13.7783 3.1390 0.0000 -10694.4229 1442.0290 0.0000 0.0000 1831.5698 -7401.7646 310.9608 -9233.3344 -7463.0391 302.4070 104.1671 206.2137 30478.9344 88.1797 150.6838
ENERGY: 1200000 2.3142 12.1383 2.7816 0.0000 -10712.9202 1452.0680 0.0000 0.0000 1790.5678 -7453.0503 303.9996 -9243.6181 -7466.1601 302.7306 122.8698 115.4976 30327.1978 89.2563 147.3114
ENERGY: 1500000 1.0422 5.6258 2.4150 0.0000 -10550.3685 1324.4875 0.0000 0.0000 1744.2363 -7472.5619 296.1335 -9216.7981 -7469.3353 301.6924 -786.5623 -781.5511 30648.3490 64.5534 119.8981
TCL: Running FEP window  15: Lambda1 0.7000000000000001 Lambda2 0.7500000000000001 [dLambda 0.050000000000000044]
TCL: Setting parameter firsttimestep to 0
TCL: Setting parameter alchLambda to 0.7000000000000001
Info: NONBONDED TABLE R-SQUARED SPACING: 0.0625
Info: NONBONDED TABLE SIZE: 705 POINTS
TCL: Setting parameter alchLambda2 to 0.7500000000000001
Info: NONBONDED TABLE R-SQUARED SPACING: 0.0625
Info: NONBONDED TABLE SIZE: 705 POINTS
TCL: Running for 1500000 steps
ETITLE: TS BOND ANGLE DIHED IMPRP ELECT VDW BOUNDARY MISC KINETIC TOTAL TEMP POTENTIAL TOTALAVG TEMPAVG PRESSURE GPRESSURE VOLUME PRESSAVG GPRESSAVG
ENERGY: 0 1.0422 5.6258 2.4150 0.0000 -10550.5529 1324.2795 0.0000 0.0000 1743.4216 -7473.7688 295.9952 -9217.1904 -7473.7688 295.9952 -851.5982 -772.8607 30648.3490 -851.5982 -772.8607
ENERGY: 300000 2.0570 12.2226 4.3126 0.0000 -10585.4760 1363.5693 0.0000 0.0000 1751.7591 -7451.5554 297.4107 -9203.3145 -7442.8942 298.4460 -377.0765 -384.6865 30395.9837 -258.7275 -194.1934
ENERGY: 600000 1.8744 10.0394 3.1908 0.0000 -10772.2083 1461.6156 0.0000 0.0000 1781.7723 -7513.7159 302.5063 -9295.4882 -7439.0447 301.3385 -78.8475 22.0898 30468.9967 -49.1777 17.0876
ENERGY: 900000 2.0410 8.5242 4.5744 0.0000 -10612.5872 1357.8913 0.0000 0.0000 1743.7293 -7495.8269 296.0474 -9239.5562 -7462.4265 299.7990 -512.0917 -454.8330 30526.0654 -28.7129 43.8832
ENERGY: 1200000 1.5748 10.2713 4.3086 0.0000 -10774.9722 1513.4788 0.0000 0.0000 1750.6863 -7494.6524 297.2286 -9245.3387 -7459.5825 300.8132 712.1733 794.9681 30220.8137 26.4392 103.3526
ENERGY: 1500000 4.0118 9.2904 3.8758 0.0000 -10678.3182 1434.3679 0.0000 0.0000 1786.2709 -7440.5013 303.2700 -9226.7722 -7458.9416 300.2712 -134.5433 -44.9664 30624.8941 -59.1373 17.1309
TCL: Running FEP window  16: Lambda1 0.7500000000000001 Lambda2 0.8000000000000002 [dLambda 0.050000000000000044]
TCL: Setting parameter firsttimestep to 0
TCL: Setting parameter alchLambda to 0.7500000000000001
Info: NONBONDED TABLE R-SQUARED SPACING: 0.0625
Info: NONBONDED TABLE SIZE: 705 POINTS
TCL: Setting parameter alchLambda2 to 0.8000000000000002
Info: NONBONDED TABLE R-SQUARED SPACING: 0.0625
Info: NONBONDED TABLE SIZE: 705 POINTS
TCL: Running for 1500000 steps
ETITLE: TS BOND ANGLE DIHED IMPRP ELECT VDW BOUNDARY MISC KINETIC TOTAL TEMP POTENTIAL TOTALAVG TEMPAVG PRESSURE GPRESSURE VOLUME PRESSAVG GPRESSAVG
ENERGY: 0 4.0118 9.2904 3.8758 0.0000 -10678.5103 1434.5671 0.0000 0.0000 1785.3993 -7441.3659 303.1221 -9226.7652 -7441.3659 303.1221 -108.8153 -27.3120 30624.8941 -108.8153 -27.3120
ENERGY: 300000 1.7101 10.5859 2.4035 0.0000 -10695.8040 1392.4521 0.0000 0.0000 1795.1509 -7493.5016 304.7777 -9288.6526 -7461.0547 302.5168 -381.2358 -359.5994 30457.3057 -179.8849 -143.6666
ENERGY: 600000 3.7085 9.5585 3.8741 0.0000 -10593.5706 1367.8633 0.0000 0.0000 1782.1789 -7426.3873 302.5753 -9208.5662 -7454.8402 301.6470 -105.1125 -54.8225 30072.9816 -316.3034 -279.0748
ENERGY: 900000 0.7331 8.7816 3.3583 0.0000 -10857.7372 1578.4438 0.0000 0.0000 1734.2310 -7532.1894 294.4348 -9266.4205 -7454.9200 301.1640 1187.1733 1296.7459 30194.3435 -79.8615 -19.8561
ENERGY: 1200000 1.2691 7.6921 3.0750 0.0000 -10668.5394 1408.9325 0.0000 0.0000 1787.5298 -7460.0409 303.4838 -9247.5707 -7456.3379 301.8104 -316.6627 -240.4901 30519.8584 -136.4840 -72.0011
ENERGY: 1500000 3.2162 9.5009 2.8228 0.0000 -10631.1900 1394.1051 0.0000 0.0000 1798.1534 -7423.3915 305.2874 -9221.5450 -7454.7216 302.0425 -174.6760 -68.5650 30338.5022 -192.0886 -121.7385
TCL: Running FEP window  17: Lambda1 0.8000000000000002 Lambda2 0.8500000000000002 [dLambda 0.050000000000000044]
TCL: Setting parameter firsttimestep to 0
TCL: Setting parameter alchLambda to 0.8000000000000002
Info: NONBONDED TABLE R-SQUARED SPACING: 0.0625
Info: NONBONDED TABLE SIZE: 705 POINTS
TCL: Setting parameter alchLambda2 to 0.8500000000000002
Info: NONBONDED TABLE R-SQUARED SPACING: 0.0625
Info: NONBONDED TABLE SIZE: 705 POINTS
TCL: Running for 1500000 steps
ETITLE: TS BOND ANGLE DIHED IMPRP ELECT VDW BOUNDARY MISC KINETIC TOTAL TEMP POTENTIAL TOTALAVG TEMPAVG PRESSURE GPRESSURE VOLUME PRESSAVG GPRESSAVG
ENERGY: 0 3.2162 9.5009 2.8228 0.0000 -10631.7393 1394.3648 0.0000 0.0000 1797.2904 -7424.5442 305.1409 -9221.8346 -7424.5442 305.1409 -140.2271 -49.6033 30338.5022 -140.2271 -49.6033
ENERGY: 300000 2.4280 9.3256 2.8853 0.0000 -10618.4083 1365.0532 0.0000 0.0000 1747.2871 -7491.4290 296.6514 -9238.7161 -7468.7282 301.5330 -291.8521 -217.8955 30057.4749 -35.3594 38.8375
ENERGY: 600000 1.8554 10.0100 4.0814 0.0000 -10706.8763 1478.6518 0.0000 0.0000 1697.1814 -7515.0963 288.1446 -9212.2777 -7484.2815 300.3727 347.0868 347.5507 30675.7067 -166.4282 -109.8419
ENERGY: 900000 1.6962 7.1382 2.5547 0.0000 -10611.8873 1428.1355 0.0000 0.0000 1751.2063 -7421.1564 297.3168 -9172.3627 -7484.4927 299.5601 172.8491 202.2135 30552.1907 -131.8032 -70.2793
ENERGY: 1200000 5.2999 9.4830 2.9902 0.0000 -10770.3087 1505.6453 0.0000 0.0000 1809.9571 -7436.9331 307.2915 -9246.8902 -7483.5035 300.4090 545.6824 624.5090 30109.4751 -67.2244 -3.9800
ENERGY: 1500000 2.0703 10.3150 2.7550 0.0000 -10679.5062 1500.2648 0.0000 0.0000 1760.8517 -7403.2494 298.9544 -9164.1011 -7482.1497 300.3816 480.0084 469.2868 31187.0609 -61.4276 -4.8135
TCL: Running FEP window  18: Lambda1 0.8500000000000002 Lambda2 0.9000000000000002 [dLambda 0.050000000000000044]
TCL: Setting parameter firsttimestep to 0
TCL: Setting parameter alchLambda to 0.8500000000000002
Info: NONBONDED TABLE R-SQUARED SPACING: 0.0625
Info: NONBONDED TABLE SIZE: 705 POINTS
TCL: Setting parameter alchLambda2 to 0.9000000000000002
Info: NONBONDED TABLE R-SQUARED SPACING: 0.0625
Info: NONBONDED TABLE SIZE: 705 POINTS
TCL: Running for 1500000 steps
ETITLE: TS BOND ANGLE DIHED IMPRP ELECT VDW BOUNDARY MISC KINETIC TOTAL TEMP POTENTIAL TOTALAVG TEMPAVG PRESSURE GPRESSURE VOLUME PRESSAVG GPRESSAVG
ENERGY: 0 2.0703 10.3150 2.7550 0.0000 -10680.1516 1500.2737 0.0000 0.0000 1759.9770 -7404.7605 298.8059 -9164.7375 -7404.7605 298.8059 403.2509 479.2541 31187.0609 403.2509 479.2541
ENERGY: 300000 5.5663 13.0598 3.7254 0.0000 -10597.6546 1416.9552 0.0000 0.0000 1750.9071 -7407.4408 297.2660 -9158.3479 -7431.7268 301.5986 -239.1232 -148.8128 30643.0741 -5.0846 108.8159
ENERGY: 600000 1.0579 9.1615 4.5953 0.0000 -10687.3109 1420.2480 0.0000 0.0000 1711.3216 -7540.9267 290.5453 -9252.2482 -7442.2814 300.4751 -427.4850 -319.8601 30768.1893 102.3670 196.3638
ENERGY: 900000 2.8353 10.0353 4.0871 0.0000 -10588.4164 1331.7653 0.0000 0.0000 1766.9200 -7472.7734 299.9847 -9239.6934 -7453.8225 299.9909 -883.4233 -863.2690 30607.4782 -29.0143 51.7767
ENERGY: 1200000 3.4731 12.3952 3.7317 0.0000 -10688.0182 1427.6027 0.0000 0.0000 1760.3428 -7480.4728 298.8680 -9240.8156 -7462.6993 299.3199 188.1308 241.2437 29861.1279 -101.6958 -21.5453
ENERGY: 1500000 0.6343 10.0528 4.9381 0.0000 -10887.0539 1520.9794 0.0000 0.0000 1843.7955 -7506.6538 313.0365 -9350.4493 -7462.4646 299.9276 546.7499 606.2418 30286.3809 -71.4414 8.1654
TCL: Running FEP window  19: Lambda1 0.9000000000000002 Lambda2 0.9500000000000003 [dLambda 0.050000000000000044]
TCL: Setting parameter firsttimestep to 0
TCL: Setting parameter alchLambda to 0.9000000000000002
Info: NONBONDED TABLE R-SQUARED SPACING: 0.0625
Info: NONBONDED TABLE SIZE: 705 POINTS
TCL: Setting parameter alchLambda2 to 0.9500000000000003
Info: NONBONDED TABLE R-SQUARED SPACING: 0.0625
Info: NONBONDED TABLE SIZE: 705 POINTS
TCL: Running for 1500000 steps
ETITLE: TS BOND ANGLE DIHED IMPRP ELECT VDW BOUNDARY MISC KINETIC TOTAL TEMP POTENTIAL TOTALAVG TEMPAVG PRESSURE GPRESSURE VOLUME PRESSAVG GPRESSAVG
ENERGY: 0 0.6343 10.0528 4.9381 0.0000 -10887.5766 1521.9524 0.0000 0.0000 1842.9283 -7507.0708 312.8892 -9349.9991 -7507.0708 312.8892 542.3699 637.1010 30286.3809 542.3699 637.1010
ENERGY: 300000 1.0792 9.2127 2.8589 0.0000 -10710.3103 1506.5102 0.0000 0.0000 1742.8952 -7447.7541 295.9058 -9190.6493 -7478.4831 304.1403 647.8064 703.0479 30729.8121 313.5148 385.9538
ENERGY: 600000 1.9238 12.9359 3.5166 0.0000 -10623.2073 1388.2384 0.0000 0.0000 1758.0421 -7458.5505 298.4774 -9216.5926 -7451.4630 304.5144 -260.4484 -217.6068 30565.3960 130.7196 192.5133
ENERGY: 900000 2.8433 7.6337 4.6105 0.0000 -10809.0274 1492.1934 0.0000 0.0000 1830.1934 -7471.5531 310.7271 -9301.7465 -7459.3701 304.1257 395.5315 482.7604 30308.8110 182.1168 241.4288
ENERGY: 1200000 1.0802 12.9064 3.8475 0.0000 -10736.8703 1394.1748 0.0000 0.0000 1754.8879 -7569.9734 297.9419 -9324.8613 -7458.7174 303.5896 -639.8607 -551.8160 30450.4883 89.4765 150.9479
ENERGY: 1500000 0.8363 12.0384 2.7087 0.0000 -10703.7769 1412.5875 0.0000 0.0000 1728.5203 -7547.0855 293.4652 -9275.6058 -7461.7481 302.4761 -219.6759 -124.1483 30292.5841 -2.6622 57.7433
TCL: Running FEP window  20: Lambda1 0.9500000000000003 Lambda2 1.0    [dLambda 0.04999999999999971]
TCL: Setting parameter firsttimestep to 0
TCL: Setting parameter alchLambda to 0.9500000000000003
Info: NONBONDED TABLE R-SQUARED SPACING: 0.0625
Info: NONBONDED TABLE SIZE: 705 POINTS
TCL: Setting parameter alchLambda2 to 1.0
Info: NONBONDED TABLE R-SQUARED SPACING: 0.0625
Info: NONBONDED TABLE SIZE: 705 POINTS
TCL: Running for 1500000 steps
ETITLE: TS BOND ANGLE DIHED IMPRP ELECT VDW BOUNDARY MISC KINETIC TOTAL TEMP POTENTIAL TOTALAVG TEMPAVG PRESSURE GPRESSURE VOLUME PRESSAVG GPRESSAVG
ENERGY: 0 0.8363 12.0384 2.7087 0.0000 -10703.9705 1412.3415 0.0000 0.0000 1727.6838 -7548.3617 293.3232 -9276.0455 -7548.3617 293.3232 -193.4966 -109.8072 30292.5841 -193.4966 -109.8072
ENERGY: 300000 1.6083 10.9213 4.8360 0.0000 -10687.7812 1423.6877 0.0000 0.0000 1774.1245 -7472.6034 301.2079 -9246.7279 -7467.0719 300.4242 -177.9852 -39.7313 30785.2988 -118.0520 -45.1290
ENERGY: 600000 0.6913 12.5586 3.4039 0.0000 -10657.9148 1424.9620 0.0000 0.0000 1754.9969 -7461.3021 297.9604 -9216.2990 -7486.5823 296.7189 -78.1216 36.5644 30517.4728 -193.1088 -121.4714
ENERGY: 900000 0.8444 12.6980 4.4254 0.0000 -10741.4826 1451.0019 0.0000 0.0000 1814.8620 -7457.6509 308.1242 -9272.5129 -7477.0889 299.0066 -58.3256 66.5276 30494.4584 -107.1322 -40.4631
ENERGY: 1200000 4.1315 11.4314 3.2266 0.0000 -10588.3740 1444.4530 0.0000 0.0000 1787.9296 -7337.2019 303.5517 -9125.1315 -7464.4138 299.5717 172.4173 263.3652 30926.4079 -149.9732 -81.6360
ENERGY: 1500000 4.1855 13.0688 3.1962 0.0000 -10720.7247 1458.6806 0.0000 0.0000 1760.6454 -7480.9481 298.9194 -9241.5935 -7469.0118 299.5637 9.8655 82.4587 30492.5028 -99.2331 -29.9044
TCL: Exiting due to exit command.
