Info: SIMULATION PARAMETERS:
Info: TIMESTEP               2
Info: NUMBER OF STEPS        0
Info: STEPS PER CYCLE        10
Info: PERIODIC CELL BASIS 1  30.2223 0 0
Info: PERIODIC CELL BASIS 2  0 29.2125 0
Info: PERIODIC CELL BASIS 3  0 0 34.9097
Info: PERIODIC CELL CENTER   0 0 0
Info: WRAPPING WATERS AROUND PERIODIC BOUNDARIES ON OUTPUT.
Info: WRAPPING ALL CLUSTERS AROUND PERIODIC BOUNDARIES ON OUTPUT.
Info: FIRST LDB TIMESTEP     50
Info: LAST LDB TIMESTEP     -1
Info: HOM BACKGROUND SCALING 1
Info: PME BACKGROUND SCALING 1
Info: MIN ATOMS PER PATCH    40
Info: EMPTY PATCH LOAD       40 ATOMS
Info: VELOCITY FILE          mobley_1743409_equil.vel
Info: CENTER OF MASS MOVING INITIALLY? NO
Info: DIELECTRIC             1
Info: EXCLUDE                SCALED ONE-FOUR
Info: 1-4 ELECTROSTATICS SCALED BY 0.833333
Info: MODIFIED 1-4 VDW PARAMETERS WILL BE USED
Info: DCD FILENAME           mobley_1743409_prod.dcd
Info: DCD FREQUENCY          100000
Info: DCD FIRST STEP         100000
Info: DCD FILE WILL CONTAIN UNIT CELL DATA
Info: XST FILENAME           mobley_1743409_prod.xst
Info: XST FREQUENCY          100000
Info: NO VELOCITY DCD OUTPUT
Info: NO FORCE DCD OUTPUT
Info: OUTPUT FILENAME        mobley_1743409_prod
Info: BINARY OUTPUT FILES WILL BE USED
Info: RESTART FILENAME       mobley_1743409_prod.restart
Info: RESTART FREQUENCY      100000
Info: BINARY RESTART FILES WILL BE USED
Info: CUTOFF                 9
Info: PAIRLIST DISTANCE      11
Info: PAIRLIST SHRINK RATE   0.01
Info: PAIRLIST GROW RATE     0.01
Info: PAIRLIST TRIGGER       0.3
Info: PAIRLISTS PER CYCLE    2
Info: PAIRLISTS ENABLED
Info: MARGIN                 2
Info: HYDROGEN GROUP CUTOFF  2.5
Info: PATCH DIMENSION        15.5
Info: ENERGY OUTPUT STEPS    100000
Info: ENERGY EVALUATION STEPS    100000
Info: OUTPUT ENERGY PRECISION 4
Info: CROSSTERM ENERGY INCLUDED IN DIHEDRAL
Info: TIMING OUTPUT STEPS    1000000
Info: PRESSURE OUTPUT STEPS  100000
Info: ALCHEMICAL FEP ON
Info: FEP CURRENT LAMBDA VALUE     1
Info: FEP COMPARISON LAMBDA VALUE  0.95
Info: FEP INTRA-ALCHEMICAL NON-BONDED INTERACTIONS WILL BE RETAINED
Info: FEP INTRA-ALCHEMICAL BONDED INTERACTIONS WILL BE RETAINED
Info: FEP VDW SHIFTING COEFFICIENT 5
Info: FEP ELEC. ACTIVE FOR ANNIHILATED PARTICLES BETWEEN LAMBDA = 0 AND LAMBDA = 0.5
Info: FEP ELEC. ACTIVE FOR EXNIHILATED PARTICLES BETWEEN LAMBDA = 0.5 AND LAMBDA = 1
Info: FEP VDW ACTIVE FOR ANNIHILATED PARTICLES BETWEEN LAMBDA = 0 AND LAMBDA = 1
Info: FEP VDW ACTIVE FOR EXNIHILATED PARTICLES BETWEEN LAMBDA = 0 AND LAMBDA = 1
Info: FEP BOND ACTIVE FOR ANNIHILATED PARTICLES BETWEEN LAMBDA = 1 AND LAMBDA = 1
Info: FEP BOND ACTIVE FOR EXNIHILATED PARTICLES BETWEEN LAMBDA = 0 AND LAMBDA = 0
Info: LANGEVIN DYNAMICS ACTIVE
Info: LANGEVIN TEMPERATURE   300
Info: LANGEVIN USING BBK INTEGRATOR
Info: LANGEVIN DAMPING COEFFICIENT IS 1 INVERSE PS
Info: LANGEVIN DYNAMICS APPLIED TO HYDROGENS
Info: LANGEVIN PISTON PRESSURE CONTROL ACTIVE
Info:        TARGET PRESSURE IS 1.01325 BAR
Info:     OSCILLATION PERIOD IS 50 FS
Info:             DECAY TIME IS 25 FS
Info:     PISTON TEMPERATURE IS 300 K
Info:       PRESSURE CONTROL IS GROUP-BASED
Info:    INITIAL STRAIN RATE IS 0.000445919 0.000445919 0.000445919
Info:       CELL FLUCTUATION IS ISOTROPIC
Info: PARTICLE MESH EWALD (PME) ACTIVE
Info: PME TOLERANCE               1e-06
Info: PME EWALD COEFFICIENT       0.348832
Info: PME INTERPOLATION ORDER     4
Info: PME GRID DIMENSIONS         32 32 36
Info: PME MAXIMUM GRID SPACING    1
Info: PME CALCULATION WILL BE PERFORMED ON GPU
Info: FULL ELECTROSTATIC EVALUATION FREQUENCY      2
Info: USING VERLET I (r-RESPA) MTS SCHEME.
Info: C1 SPLITTING OF LONG RANGE ELECTROSTATICS
Info: PLACING ATOMS IN PATCHES BY HYDROGEN GROUPS
Info: RIGID BONDS TO HYDROGEN : ALL
Info:         ERROR TOLERANCE : 1e-08
Info:          MAX ITERATIONS : 100
Info: RIGID WATER USING SETTLE ALGORITHM
Info: RANDOM NUMBER SEED     1744036376
Info: USE HYDROGEN BONDS?    NO
Info: Using AMBER format force field!
Info: AMBER PARM FILE        mobley_1743409.prmtop
Info: COORDINATE PDB         mobley_1743409.pdb
Info: Exclusions will be read from PARM file!
Info: SCNB (VDW SCALING)     2
Info: USING ARITHMETIC MEAN TO COMBINE L-J SIGMA PARAMETERS
Info: BINARY COORDINATES     mobley_1743409_equil.coor
Info: SUMMARY OF PARAMETERS:
Info: 9 BONDS
Info: 12 ANGLES
Info:   12 HARMONIC
Info:   0 COSINE-BASED
Info: 16 DIHEDRAL
Info: 0 IMPROPER
Info: 0 CROSSTERM
Info: 0 VDW
Info: 36 VDW_PAIRS
Info: 0 NBTHOLE_PAIRS
Info: To read alchdata from file: mobley_1743409.pdb
Info: To read alchflag data from column: 5
Info: STRUCTURE SUMMARY:
Info: 2987 ATOMS
Info: 2986 BONDS
Info: 44 ANGLES
Info: 73 DIHEDRALS
Info: 0 IMPROPERS
Info: 0 CROSSTERMS
Info: 3079 EXCLUSIONS
Info: 2975 RIGID BONDS
Info: ALCH: 0 ATOMS TO DISAPPEAR IN FINAL STATE
Info: ALCH: 26 ATOMS TO APPEAR IN FINAL STATE
Info: 5986 DEGREES OF FREEDOM
Info: 999 HYDROGEN GROUPS
Info: 4 ATOMS IN LARGEST HYDROGEN GROUP
Info: 999 MIGRATION GROUPS
Info: 4 ATOMS IN LARGEST MIGRATION GROUP
Info: TOTAL MASS = 17956 amu
Info: TOTAL CHARGE = -9.99197e-05 e
Info: MASS DENSITY = 0.967446 g/cm^3
Info: ATOM DENSITY = 0.0969156 atoms/A^3
Info: ADDED 0 IMPLICIT EXCLUSIONS
Info: NONBONDED TABLE R-SQUARED SPACING: 0.0625
Info: NONBONDED TABLE SIZE: 705 POINTS
Info: REMOVING COM VELOCITY 0.0391022 0.156026 0.118627
Info: Use 3D box decompostion in PME FFT.
Info: Updated CUDA force table with 4096 elements.
Info: Updated CUDA LJ table with 8 x 8 elements.
Info: Found 28 unique exclusion lists needing 92 bytes
TCL: Running for 1500000 steps
ETITLE: TS BOND ANGLE DIHED IMPRP ELECT VDW BOUNDARY MISC KINETIC TOTAL TEMP POTENTIAL TOTALAVG TEMPAVG PRESSURE GPRESSURE VOLUME PRESSAVG GPRESSAVG
ENERGY: 0 3.9418 13.0403 8.9645 0.0000 -10757.0106 1369.9222 0.0000 0.0000 1772.3827 -7588.7592 297.9965 -9361.1419 -7588.7592 297.9965 -669.4220 -581.3640 30820.6385 -669.4220 -581.3640
ENERGY: 300000 3.2316 13.0489 8.0888 0.0000 -10842.1947 1422.0198 0.0000 0.0000 1780.6469 -7615.1586 299.3860 -9395.8055 -7581.4068 299.7536 -167.5635 -57.9779 30688.1914 -233.3965 -134.2504
ENERGY: 600000 3.0756 17.8510 9.0393 0.0000 -10787.1224 1412.3492 0.0000 0.0000 1805.0417 -7539.7655 303.4876 -9344.8072 -7576.3268 299.7745 -271.4032 -257.7737 30792.2646 -184.6319 -103.0505
ENERGY: 900000 5.4345 6.3865 7.0042 0.0000 -10949.2535 1558.0686 0.0000 0.0000 1766.2141 -7606.1455 296.9594 -9372.3596 -7569.4171 299.5600 639.7497 646.9944 30929.3620 -166.7116 -96.5525
ENERGY: 1200000 2.8310 15.0924 8.7800 0.0000 -10774.2374 1413.7713 0.0000 0.0000 1816.9057 -7516.8571 305.4823 -9333.7628 -7567.9080 299.7471 55.7429 126.8934 30430.5264 -56.2196 11.6962
ENERGY: 1500000 3.4660 12.5379 10.0280 0.0000 -10869.3040 1478.5582 0.0000 0.0000 1785.4270 -7579.2870 300.1897 -9364.7140 -7557.1153 300.7936 -77.2679 20.9288 31160.2638 -79.3102 -7.3067
TCL: Running FEP window   2: Lambda1 0.95   Lambda2 0.8999999999999999 [dLambda -0.050000000000000044]
TCL: Setting parameter firsttimestep to 0
TCL: Setting parameter alchLambda to 0.95
Info: NONBONDED TABLE R-SQUARED SPACING: 0.0625
Info: NONBONDED TABLE SIZE: 705 POINTS
TCL: Setting parameter alchLambda2 to 0.8999999999999999
Info: NONBONDED TABLE R-SQUARED SPACING: 0.0625
Info: NONBONDED TABLE SIZE: 705 POINTS
TCL: Running for 1500000 steps
ETITLE: TS BOND ANGLE DIHED IMPRP ELECT VDW BOUNDARY MISC KINETIC TOTAL TEMP POTENTIAL TOTALAVG TEMPAVG PRESSURE GPRESSURE VOLUME PRESSAVG GPRESSAVG
ENERGY: 0 3.4660 12.5379 10.0280 0.0000 -10866.6953 1477.9183 0.0000 0.0000 1784.5348 -7578.2104 300.0397 -9362.7452 -7578.2104 300.0397 -82.0486 -1.2986 31160.2638 -82.0486 -1.2986
ENERGY: 300000 4.0621 10.1412 7.2156 0.0000 -10879.6385 1476.8436 0.0000 0.0000 1770.6981 -7610.6780 297.7133 -9381.3761 -7606.6325 296.6564 159.6735 219.2603 30967.0765 -36.8614 45.9510
ENERGY: 600000 1.3979 8.6013 9.9380 0.0000 -10793.8404 1415.7522 0.0000 0.0000 1786.6822 -7571.4689 300.4007 -9358.1511 -7569.9012 297.2070 -73.3457 17.4166 30577.5457 -253.7051 -173.7414
ENERGY: 900000 2.4178 11.9941 7.9674 0.0000 -11008.9996 1467.3025 0.0000 0.0000 1756.1495 -7763.1684 295.2672 -9519.3179 -7597.0746 297.8438 -318.3816 -219.2816 30489.5674 -176.8611 -100.3522
ENERGY: 1200000 3.6029 11.4986 8.7519 0.0000 -10858.0772 1518.6946 0.0000 0.0000 1788.5134 -7527.0158 300.7086 -9315.5292 -7579.9540 298.9052 631.8351 677.6338 30973.1327 -89.3598 -19.3736
ENERGY: 1500000 3.7614 9.8644 11.8003 0.0000 -10823.3513 1402.9143 0.0000 0.0000 1763.2420 -7631.7689 296.4597 -9395.0109 -7588.9047 299.1257 -697.2921 -603.0973 30661.6184 -166.7792 -99.8298
TCL: Running FEP window   3: Lambda1 0.8999999999999999 Lambda2 0.8499999999999999 [dLambda -0.050000000000000044]
TCL: Setting parameter firsttimestep to 0
TCL: Setting parameter alchLambda to 0.8999999999999999
Info: NONBONDED TABLE R-SQUARED SPACING: 0.0625
Info: NONBONDED TABLE SIZE: 705 POINTS
TCL: Setting parameter alchLambda2 to 0.8499999999999999
Info: NONBONDED TABLE R-SQUARED SPACING: 0.0625
Info: NONBONDED TABLE SIZE: 705 POINTS
TCL: Running for 1500000 steps
ETITLE: TS BOND ANGLE DIHED IMPRP ELECT VDW BOUNDARY MISC KINETIC TOTAL TEMP POTENTIAL TOTALAVG TEMPAVG PRESSURE GPRESSURE VOLUME PRESSAVG GPRESSAVG
ENERGY: 0 3.7614 9.8644 11.8003 0.0000 -10820.5282 1402.9652 0.0000 0.0000 1762.4012 -7629.7356 296.3183 -9392.1368 -7629.7356 296.3183 -702.4735 -614.6580 30661.6184 -702.4735 -614.6580
ENERGY: 300000 3.9055 10.1962 7.0967 0.0000 -10855.5906 1482.9753 0.0000 0.0000 1795.4403 -7555.9765 301.8733 -9351.4168 -7563.8638 300.7717 521.1163 558.1730 30657.0073 110.9400 183.1042
ENERGY: 600000 2.9898 14.8523 9.2734 0.0000 -10768.2776 1415.4889 0.0000 0.0000 1771.6346 -7554.0386 297.8707 -9325.6732 -7561.3034 301.5220 -317.8101 -321.7519 31380.1970 41.0949 112.0505
ENERGY: 900000 2.3836 8.3678 8.6809 0.0000 -10896.1607 1504.1232 0.0000 0.0000 1784.7620 -7587.8433 300.0779 -9372.6053 -7568.6828 299.8905 556.1361 598.4091 30599.4708 -20.9795 43.4985
ENERGY: 1200000 2.3305 10.5063 9.6585 0.0000 -10832.0573 1404.8190 0.0000 0.0000 1823.9061 -7580.8368 306.6593 -9404.7429 -7576.0605 300.6275 -502.6856 -361.3077 30864.4235 -104.3042 -39.2216
ENERGY: 1500000 2.8279 11.0675 10.8361 0.0000 -10777.2594 1449.9504 0.0000 0.0000 1753.1505 -7549.4270 294.7629 -9302.5775 -7578.3251 299.6100 70.3187 183.5367 30935.2097 -186.7289 -122.4382
TCL: Running FEP window   4: Lambda1 0.8499999999999999 Lambda2 0.7999999999999998 [dLambda -0.050000000000000044]
TCL: Setting parameter firsttimestep to 0
TCL: Setting parameter alchLambda to 0.8499999999999999
Info: NONBONDED TABLE R-SQUARED SPACING: 0.0625
Info: NONBONDED TABLE SIZE: 705 POINTS
TCL: Setting parameter alchLambda2 to 0.7999999999999998
Info: NONBONDED TABLE R-SQUARED SPACING: 0.0625
Info: NONBONDED TABLE SIZE: 705 POINTS
TCL: Running for 1500000 steps
ETITLE: TS BOND ANGLE DIHED IMPRP ELECT VDW BOUNDARY MISC KINETIC TOTAL TEMP POTENTIAL TOTALAVG TEMPAVG PRESSURE GPRESSURE VOLUME PRESSAVG GPRESSAVG
ENERGY: 0 2.8279 11.0675 10.8361 0.0000 -10775.3292 1449.7483 0.0000 0.0000 1752.2278 -7548.6217 294.6078 -9300.8495 -7548.6217 294.6078 93.2106 169.1470 30935.2097 93.2106 169.1470
ENERGY: 300000 1.8434 10.3767 6.7929 0.0000 -10916.9727 1463.8953 0.0000 0.0000 1777.7484 -7656.3161 298.8987 -9434.0645 -7591.8442 300.8168 139.2985 202.7582 30474.6635 268.1862 341.7085
ENERGY: 600000 4.6021 9.5875 9.6367 0.0000 -10846.1430 1438.2116 0.0000 0.0000 1797.2957 -7586.8095 302.1852 -9384.1052 -7591.7541 301.2548 90.0740 93.5018 30456.8955 207.2652 273.5499
ENERGY: 900000 3.3843 15.5600 9.0603 0.0000 -10869.9174 1452.7254 0.0000 0.0000 1839.2700 -7549.9174 309.2425 -9389.1874 -7581.8408 301.5810 114.7920 206.9869 30282.2440 190.0340 256.6464
ENERGY: 1200000 2.7058 12.8183 8.2385 0.0000 -10871.4417 1491.7019 0.0000 0.0000 1782.0733 -7573.9039 299.6258 -9355.9772 -7577.4289 300.7417 484.5878 600.5962 30552.6331 109.3987 175.6166
ENERGY: 1500000 4.1104 10.0431 6.9989 0.0000 -10870.4501 1462.6097 0.0000 0.0000 1719.8047 -7666.8832 289.1564 -9386.6879 -7574.2789 300.2896 -18.4320 61.8872 30727.3880 41.6881 108.2626
TCL: Running FEP window   5: Lambda1 0.7999999999999998 Lambda2 0.7499999999999998 [dLambda -0.050000000000000044]
TCL: Setting parameter firsttimestep to 0
TCL: Setting parameter alchLambda to 0.7999999999999998
Info: NONBONDED TABLE R-SQUARED SPACING: 0.0625
Info: NONBONDED TABLE SIZE: 705 POINTS
TCL: Setting parameter alchLambda2 to 0.7499999999999998
Info: NONBONDED TABLE R-SQUARED SPACING: 0.0625
Info: NONBONDED TABLE SIZE: 705 POINTS
TCL: Running for 1500000 steps
ETITLE: TS BOND ANGLE DIHED IMPRP ELECT VDW BOUNDARY MISC KINETIC TOTAL TEMP POTENTIAL TOTALAVG TEMPAVG PRESSURE GPRESSURE VOLUME PRESSAVG GPRESSAVG
ENERGY: 0 4.1104 10.0431 6.9989 0.0000 -10866.7938 1461.8436 0.0000 0.0000 1718.9396 -7664.8581 289.0109 -9383.7977 -7664.8581 289.0109 -24.4023 48.1317 30727.3880 -24.4023 48.1317
ENERGY: 300000 3.5823 17.4894 9.9610 0.0000 -10746.8599 1354.9183 0.0000 0.0000 1772.9347 -7587.9741 298.0893 -9360.9088 -7617.1699 297.3336 -786.7301 -694.1296 30758.9515 136.5966 197.0299
ENERGY: 600000 1.2405 12.1980 9.4290 0.0000 -10880.5895 1478.2676 0.0000 0.0000 1816.9837 -7562.4707 305.4954 -9379.4544 -7610.4735 298.3732 132.2215 187.2771 30813.7059 -29.1594 31.0916
ENERGY: 900000 2.8164 10.6494 13.7165 0.0000 -10931.9175 1517.3887 0.0000 0.0000 1808.9038 -7578.4426 304.1369 -9387.3464 -7595.0047 298.3420 426.8034 454.2031 30858.3556 -134.6452 -79.4836
ENERGY: 1200000 2.7411 9.8209 7.4513 0.0000 -10927.2969 1513.0970 0.0000 0.0000 1831.1632 -7563.0233 307.8795 -9394.1865 -7590.3006 299.8947 619.6199 629.6961 30592.3440 -2.4374 47.6058
ENERGY: 1500000 3.0060 8.2167 10.7917 0.0000 -11003.3033 1514.6763 0.0000 0.0000 1784.5300 -7682.0826 300.0389 -9466.6126 -7590.4481 300.1679 337.9638 506.7814 30246.9069 -19.6239 35.0434
TCL: Running FEP window   6: Lambda1 0.7499999999999998 Lambda2 0.6999999999999997 [dLambda -0.050000000000000044]
TCL: Setting parameter firsttimestep to 0
TCL: Setting parameter alchLambda to 0.7499999999999998
Info: NONBONDED TABLE R-SQUARED SPACING: 0.0625
Info: NONBONDED TABLE SIZE: 705 POINTS
TCL: Setting parameter alchLambda2 to 0.6999999999999997
Info: NONBONDED TABLE R-SQUARED SPACING: 0.0625
Info: NONBONDED TABLE SIZE: 705 POINTS
TCL: Running for 1500000 steps
ETITLE: TS BOND ANGLE DIHED IMPRP ELECT VDW BOUNDARY MISC KINETIC TOTAL TEMP POTENTIAL TOTALAVG TEMPAVG PRESSURE GPRESSURE VOLUME PRESSAVG GPRESSAVG
ENERGY: 0 3.0060 8.2167 10.7917 0.0000 -11001.9728 1515.3290 0.0000 0.0000 1783.6117 -7681.0177 299.8845 -9464.6294 -7681.0177 299.8845 413.9991 501.2620 30246.9069 413.9991 501.2620
ENERGY: 300000 1.4406 7.7258 6.0474 0.0000 -10748.2799 1352.3158 0.0000 0.0000 1796.5974 -7584.1530 302.0678 -9380.7504 -7604.1240 300.2804 -802.1608 -747.9116 30946.5170 -198.8757 -134.5298
ENERGY: 600000 5.4284 10.9260 8.4765 0.0000 -10675.6402 1333.5021 0.0000 0.0000 1758.5907 -7558.7164 295.6776 -9317.3072 -7584.9448 300.4665 -1061.4339 -976.6457 31422.7505 -255.6890 -193.2501
ENERGY: 900000 4.1643 7.5606 8.7317 0.0000 -10873.4132 1505.6001 0.0000 0.0000 1840.4598 -7506.8968 309.4425 -9347.3565 -7588.0169 299.9131 401.7385 468.7838 30769.8550 -202.0117 -132.0788
ENERGY: 1200000 4.3745 14.6641 10.1705 0.0000 -10765.8018 1366.3695 0.0000 0.0000 1894.2775 -7475.9456 318.4911 -9370.2231 -7573.3110 301.2765 -517.5624 -455.8999 30890.6034 -313.1838 -247.0922
ENERGY: 1500000 6.2718 13.1084 7.3605 0.0000 -10776.9853 1413.6074 0.0000 0.0000 1811.4082 -7525.2290 304.5580 -9336.6371 -7571.1303 300.8655 -344.7380 -251.5702 30875.0947 -284.4508 -222.3011
TCL: Running FEP window   7: Lambda1 0.6999999999999997 Lambda2 0.6499999999999997 [dLambda -0.050000000000000044]
TCL: Setting parameter firsttimestep to 0
TCL: Setting parameter alchLambda to 0.6999999999999997
Info: NONBONDED TABLE R-SQUARED SPACING: 0.0625
Info: NONBONDED TABLE SIZE: 705 POINTS
TCL: Setting parameter alchLambda2 to 0.6499999999999997
Info: NONBONDED TABLE R-SQUARED SPACING: 0.0625
Info: NONBONDED TABLE SIZE: 705 POINTS
TCL: Running for 1500000 steps
ETITLE: TS BOND ANGLE DIHED IMPRP ELECT VDW BOUNDARY MISC KINETIC TOTAL TEMP POTENTIAL TOTALAVG TEMPAVG PRESSURE GPRESSURE VOLUME PRESSAVG GPRESSAVG
ENERGY: 0 6.2718 13.1084 7.3605 0.0000 -10774.6448 1413.3229 0.0000 0.0000 1810.5197 -7524.0615 304.4086 -9334.5811 -7524.0615 304.4086 -346.6608 -259.3507 30875.0947 -346.6608 -259.3507
ENERGY: 300000 5.9238 12.3162 10.7305 0.0000 -10696.0675 1387.4829 0.0000 0.0000 1761.9817 -7517.6324 296.2477 -9279.6141 -7573.3822 298.2993 -323.8737 -236.4637 30686.8696 -89.0156 -13.8365
ENERGY: 600000 6.0067 13.5828 10.0268 0.0000 -10888.8069 1437.2465 0.0000 0.0000 1749.6511 -7672.2929 294.1746 -9421.9440 -7582.2196 298.4852 -191.3646 -135.9853 30364.0524 -13.3628 53.2051
ENERGY: 900000 5.7266 13.3771 8.3877 0.0000 -10868.9122 1441.8718 0.0000 0.0000 1757.5411 -7642.0079 295.5011 -9399.5490 -7571.4321 299.2373 -405.6612 -315.9079 30965.1712 -32.3001 38.7189
ENERGY: 1200000 1.9101 8.5318 6.7773 0.0000 -10796.3644 1490.7301 0.0000 0.0000 1754.3724 -7534.0427 294.9684 -9288.4151 -7555.4627 298.5280 752.3894 734.3915 30500.2880 -3.2624 55.2170
ENERGY: 1500000 2.7431 10.1100 11.3295 0.0000 -10798.6586 1493.3516 0.0000 0.0000 1735.9006 -7545.2238 291.8626 -9281.1244 -7554.3860 298.0207 562.2033 607.0003 30678.2189 69.7482 134.5000
TCL: Running FEP window   8: Lambda1 0.6499999999999997 Lambda2 0.5999999999999996 [dLambda -0.050000000000000044]
TCL: Setting parameter firsttimestep to 0
TCL: Setting parameter alchLambda to 0.6499999999999997
Info: NONBONDED TABLE R-SQUARED SPACING: 0.0625
Info: NONBONDED TABLE SIZE: 705 POINTS
TCL: Setting parameter alchLambda2 to 0.5999999999999996
Info: NONBONDED TABLE R-SQUARED SPACING: 0.0625
Info: NONBONDED TABLE SIZE: 705 POINTS
TCL: Running for 1500000 steps
ETITLE: TS BOND ANGLE DIHED IMPRP ELECT VDW BOUNDARY MISC KINETIC TOTAL TEMP POTENTIAL TOTALAVG TEMPAVG PRESSURE GPRESSURE VOLUME PRESSAVG GPRESSAVG
ENERGY: 0 2.7431 10.1100 11.3295 0.0000 -10795.6556 1492.7266 0.0000 0.0000 1734.9976 -7543.7487 291.7108 -9278.7463 -7543.7487 291.7108 515.4659 595.5233 30678.2189 515.4659 595.5233
ENERGY: 300000 6.5650 9.7642 8.5215 0.0000 -10760.7643 1384.3202 0.0000 0.0000 1786.8923 -7564.7012 300.4361 -9351.5935 -7557.8227 297.7488 -577.0233 -538.8765 30857.0036 -25.3688 29.1488
ENERGY: 600000 4.7352 12.6336 11.9941 0.0000 -11010.0361 1525.8774 0.0000 0.0000 1754.2191 -7700.5767 294.9426 -9454.7959 -7565.4998 298.3930 353.3277 437.2289 30494.4796 49.0203 112.7639
ENERGY: 900000 2.2563 14.3839 8.3590 0.0000 -10893.2934 1467.5883 0.0000 0.0000 1760.2451 -7640.4608 295.9558 -9400.7059 -7580.4726 296.8779 74.5916 104.6461 30585.1803 112.0276 176.8704
ENERGY: 1200000 2.8817 10.5787 7.5870 0.0000 -10767.1226 1375.0763 0.0000 0.0000 1795.9179 -7575.0808 301.9536 -9370.9988 -7583.4276 297.5956 -575.5028 -467.8813 30598.9376 25.7263 98.0552
ENERGY: 1500000 3.7638 10.6261 8.9595 0.0000 -10848.1178 1445.8973 0.0000 0.0000 1845.9506 -7532.9206 310.3657 -9378.8711 -7585.5978 298.5757 -59.8146 14.5310 30399.3515 17.6218 86.7330
TCL: Running FEP window   9: Lambda1 0.5999999999999996 Lambda2 0.5499999999999996 [dLambda -0.050000000000000044]
TCL: Setting parameter firsttimestep to 0
TCL: Setting parameter alchLambda to 0.5999999999999996
Info: NONBONDED TABLE R-SQUARED SPACING: 0.0625
Info: NONBONDED TABLE SIZE: 705 POINTS
TCL: Setting parameter alchLambda2 to 0.5499999999999996
Info: NONBONDED TABLE R-SQUARED SPACING: 0.0625
Info: NONBONDED TABLE SIZE: 705 POINTS
TCL: Running for 1500000 steps
ETITLE: TS BOND ANGLE DIHED IMPRP ELECT VDW BOUNDARY MISC KINETIC TOTAL TEMP POTENTIAL TOTALAVG TEMPAVG PRESSURE GPRESSURE VOLUME PRESSAVG GPRESSAVG
ENERGY: 0 3.7638 10.6261 8.9595 0.0000 -10847.2120 1446.3597 0.0000 0.0000 1845.0987 -7532.4043 310.2225 -9377.5029 -7532.4043 310.2225 -71.6562 6.6402 30399.3515 -71.6562 6.6402
ENERGY: 300000 4.0183 17.0032 10.2928 0.0000 -10878.3120 1521.2393 0.0000 0.0000 1744.6356 -7581.1228 293.3313 -9325.7584 -7571.5907 301.9085 608.5762 668.0235 30867.0557 79.9034 151.0424
ENERGY: 600000 4.1897 11.6577 10.1871 0.0000 -10752.0876 1393.7633 0.0000 0.0000 1756.1787 -7576.1111 295.2721 -9332.2898 -7563.5615 300.4849 -762.9880 -676.5356 31049.7744 -56.4676 6.4674
ENERGY: 900000 4.5346 9.6417 8.8371 0.0000 -10908.9479 1471.7613 0.0000 0.0000 1734.0994 -7680.0737 291.5598 -9414.1731 -7574.0485 299.5811 -83.7105 -28.3356 30810.5163 -90.1597 -32.9371
ENERGY: 1200000 3.0997 11.9933 7.6875 0.0000 -10726.8110 1366.4455 0.0000 0.0000 1785.2621 -7552.3229 300.1620 -9337.5849 -7567.5273 299.8222 -691.7010 -640.2594 31130.7103 -80.1314 -26.5195
ENERGY: 1500000 1.2876 15.2811 7.6187 0.0000 -10815.4387 1455.5714 0.0000 0.0000 1770.3821 -7565.2978 297.6601 -9335.6799 -7568.6154 299.0323 65.0529 146.2382 30772.5312 -88.5581 -31.8515
TCL: Running FEP window  10: Lambda1 0.5499999999999996 Lambda2 0.4999999999999996 [dLambda -0.04999999999999999]
TCL: Setting parameter firsttimestep to 0
TCL: Setting parameter alchLambda to 0.5499999999999996
Info: NONBONDED TABLE R-SQUARED SPACING: 0.0625
Info: NONBONDED TABLE SIZE: 705 POINTS
TCL: Setting parameter alchLambda2 to 0.4999999999999996
Info: NONBONDED TABLE R-SQUARED SPACING: 0.0625
Info: NONBONDED TABLE SIZE: 705 POINTS
TCL: Running for 1500000 steps
ETITLE: TS BOND ANGLE DIHED IMPRP ELECT VDW BOUNDARY MISC KINETIC TOTAL TEMP POTENTIAL TOTALAVG TEMPAVG PRESSURE GPRESSURE VOLUME PRESSAVG GPRESSAVG
ENERGY: 0 1.2876 15.2811 7.6187 0.0000 -10812.8561 1455.2431 0.0000 0.0000 1769.5189 -7563.9067 297.5150 -9333.4256 -7563.9067 297.5150 60.3626 139.3011 30772.5312 60.3626 139.3011
ENERGY: 300000 5.7943 12.3286 10.0480 0.0000 -10773.1874 1402.4048 0.0000 0.0000 1781.5043 -7561.1074 299.5302 -9342.6118 -7590.0238 296.0508 -385.5792 -285.1993 30729.4911 -24.0019 35.7905
ENERGY: 600000 3.3175 10.3466 8.1171 0.0000 -10848.0321 1463.0211 0.0000 0.0000 1791.4448 -7571.7850 301.2015 -9363.2298 -7586.8842 297.8669 -3.7913 84.0169 30593.0687 -129.3728 -60.8428
ENERGY: 900000 2.6366 9.5923 5.7152 0.0000 -10763.6893 1427.5263 0.0000 0.0000 1835.8106 -7482.4083 308.6609 -9318.2189 -7582.1912 300.0371 -124.2248 -57.6741 30772.3271 32.0491 98.8321
ENERGY: 1200000 2.8901 13.0663 9.4511 0.0000 -10770.1973 1378.4134 0.0000 0.0000 1797.7881 -7568.5884 302.2680 -9366.3764 -7585.2212 299.7326 -635.7840 -623.7772 30820.9754 46.2318 104.3734
ENERGY: 1500000 5.2629 11.6571 8.3030 0.0000 -10955.1963 1519.7532 0.0000 0.0000 1801.4747 -7608.7455 302.8878 -9410.2201 -7583.5995 301.0148 261.6687 356.2552 30516.6365 49.9721 110.0826
TCL: Running FEP window  11: Lambda1 0.4999999999999996 Lambda2 0.4499999999999996 [dLambda -0.04999999999999999]
TCL: Setting parameter firsttimestep to 0
TCL: Setting parameter alchLambda to 0.4999999999999996
Info: NONBONDED TABLE R-SQUARED SPACING: 0.0625
Info: NONBONDED TABLE SIZE: 705 POINTS
TCL: Setting parameter alchLambda2 to 0.4499999999999996
Info: NONBONDED TABLE R-SQUARED SPACING: 0.0625
Info: NONBONDED TABLE SIZE: 705 POINTS
TCL: Running for 1500000 steps
ETITLE: TS BOND ANGLE DIHED IMPRP ELECT VDW BOUNDARY MISC KINETIC TOTAL TEMP POTENTIAL TOTALAVG TEMPAVG PRESSURE GPRESSURE VOLUME PRESSAVG GPRESSAVG
ENERGY: 0 5.2629 11.6571 8.3030 0.0000 -10954.6556 1520.4056 0.0000 0.0000 1800.5880 -7608.4391 302.7388 -9409.0271 -7608.4391 302.7388 272.3459 353.6496 30516.6365 272.3459 353.6496
ENERGY: 300000 2.3274 10.2701 8.0335 0.0000 -10581.3324 1330.4052 0.0000 0.0000 1801.8735 -7428.4227 302.9549 -9230.2963 -7563.8354 301.5240 -718.6047 -634.5235 31023.1256 -182.5123 -101.6702
ENERGY: 600000 3.3623 7.3665 9.3218 0.0000 -10905.8242 1498.9394 0.0000 0.0000 1784.0763 -7602.7581 299.9626 -9386.8343 -7553.9480 301.2813 333.0243 362.4575 30777.0246 -31.7684 41.3287
ENERGY: 900000 5.0247 11.6468 9.4063 0.0000 -10768.1964 1382.1649 0.0000 0.0000 1794.1866 -7565.7671 301.6625 -9359.9537 -7567.0154 300.5085 -504.5477 -385.3320 30324.6373 -123.7277 -41.7086
ENERGY: 1200000 0.7977 12.0349 10.1698 0.0000 -10801.7548 1459.2048 0.0000 0.0000 1733.8846 -7585.6631 291.5237 -9319.5477 -7562.7129 299.9970 33.5175 110.2887 30972.7344 -30.3027 47.1001
ENERGY: 1500000 1.9574 9.3063 12.8536 0.0000 -10828.4073 1442.0636 0.0000 0.0000 1752.8646 -7609.3617 294.7149 -9362.2263 -7568.7620 299.1292 -183.9377 -99.3495 30600.3515 -36.0301 34.8035
TCL: Running FEP window  12: Lambda1 0.4499999999999996 Lambda2 0.39999999999999963 [dLambda -0.04999999999999999]
TCL: Setting parameter firsttimestep to 0
TCL: Setting parameter alchLambda to 0.4499999999999996
Info: NONBONDED TABLE R-SQUARED SPACING: 0.0625
Info: NONBONDED TABLE SIZE: 705 POINTS
TCL: Setting parameter alchLambda2 to 0.39999999999999963
Info: NONBONDED TABLE R-SQUARED SPACING: 0.0625
Info: NONBONDED TABLE SIZE: 705 POINTS
TCL: Running for 1500000 steps
ETITLE: TS BOND ANGLE DIHED IMPRP ELECT VDW BOUNDARY MISC KINETIC TOTAL TEMP POTENTIAL TOTALAVG TEMPAVG PRESSURE GPRESSURE VOLUME PRESSAVG GPRESSAVG
ENERGY: 0 1.9574 9.3063 12.8536 0.0000 -10828.4067 1442.2177 0.0000 0.0000 1751.9380 -7610.1336 294.5591 -9362.0716 -7610.1336 294.5591 -184.3252 -107.3840 30600.3515 -184.3252 -107.3840
ENERGY: 300000 3.5403 13.4699 9.0594 0.0000 -10730.9657 1388.2988 0.0000 0.0000 1763.4969 -7553.1004 296.5025 -9316.5973 -7550.2352 297.5910 -497.9062 -397.9046 30906.8909 -619.7341 -557.4020
ENERGY: 600000 3.1139 9.9356 7.8116 0.0000 -10973.0681 1513.7938 0.0000 0.0000 1840.2974 -7598.1157 309.4152 -9438.4132 -7564.0818 299.9502 438.2851 584.5773 30205.0789 -289.1811 -222.5775
ENERGY: 900000 1.8506 12.9773 7.9742 0.0000 -10906.7397 1474.5075 0.0000 0.0000 1798.2635 -7611.1665 302.3479 -9409.4300 -7568.6134 299.5796 403.5226 467.3099 30177.4452 -261.8451 -194.0475
ENERGY: 1200000 3.4993 13.5909 11.5062 0.0000 -10923.9005 1547.0222 0.0000 0.0000 1802.2995 -7545.9825 303.0265 -9348.2820 -7557.2439 300.3652 632.3535 721.6280 30577.9701 -228.6838 -160.9062
ENERGY: 1500000 1.6735 16.7418 9.5828 0.0000 -10877.8060 1535.0798 0.0000 0.0000 1793.8784 -7520.8496 301.6107 -9314.7280 -7565.8209 300.4146 680.0464 757.1033 30748.5285 -137.2943 -72.9261
TCL: Running FEP window  13: Lambda1 0.39999999999999963 Lambda2 0.34999999999999964 [dLambda -0.04999999999999999]
TCL: Setting parameter firsttimestep to 0
TCL: Setting parameter alchLambda to 0.39999999999999963
Info: NONBONDED TABLE R-SQUARED SPACING: 0.0625
Info: NONBONDED TABLE SIZE: 705 POINTS
TCL: Setting parameter alchLambda2 to 0.34999999999999964
Info: NONBONDED TABLE R-SQUARED SPACING: 0.0625
Info: NONBONDED TABLE SIZE: 705 POINTS
TCL: Running for 1500000 steps
ETITLE: TS BOND ANGLE DIHED IMPRP ELECT VDW BOUNDARY MISC KINETIC TOTAL TEMP POTENTIAL TOTALAVG TEMPAVG PRESSURE GPRESSURE VOLUME PRESSAVG GPRESSAVG
ENERGY: 0 1.6735 16.7418 9.5828 0.0000 -10877.8068 1535.3366 0.0000 0.0000 1792.9946 -7521.4775 301.4620 -9314.4721 -7521.4775 301.4620 664.8408 750.8902 30748.5285 664.8408 750.8902
ENERGY: 300000 3.3192 13.2417 9.2022 0.0000 -10759.9689 1372.0542 0.0000 0.0000 1756.6428 -7605.5088 295.3501 -9362.1516 -7600.0878 301.2432 -727.9441 -600.9274 30632.5272 -142.6474 -56.9328
ENERGY: 600000 3.0980 10.4665 9.9041 0.0000 -10796.7409 1475.9643 0.0000 0.0000 1861.2431 -7436.0648 312.9369 -9297.3079 -7553.4240 302.6682 143.7756 219.1341 30865.4776 -226.1175 -148.2982
ENERGY: 900000 3.8574 10.8493 11.2687 0.0000 -10880.3629 1515.6615 0.0000 0.0000 1721.7033 -7617.0228 289.4756 -9338.7261 -7566.2523 300.8285 716.3406 734.8685 30228.5610 -42.8181 25.3996
ENERGY: 1200000 2.7986 16.1569 9.7955 0.0000 -10938.6543 1494.0245 0.0000 0.0000 1723.3337 -7692.5451 289.7497 -9415.8788 -7586.1090 299.1044 563.3753 644.0657 29912.5813 41.5681 109.5987
ENERGY: 1500000 1.6534 10.0447 8.1346 0.0000 -10781.7164 1398.6268 0.0000 0.0000 1773.9097 -7589.3471 298.2532 -9363.2568 -7575.0542 300.1057 -481.3977 -445.5112 30894.0862 49.3974 113.0820
TCL: Running FEP window  14: Lambda1 0.34999999999999964 Lambda2 0.29999999999999966 [dLambda -0.04999999999999999]
TCL: Setting parameter firsttimestep to 0
TCL: Setting parameter alchLambda to 0.34999999999999964
Info: NONBONDED TABLE R-SQUARED SPACING: 0.0625
Info: NONBONDED TABLE SIZE: 705 POINTS
TCL: Setting parameter alchLambda2 to 0.29999999999999966
Info: NONBONDED TABLE R-SQUARED SPACING: 0.0625
Info: NONBONDED TABLE SIZE: 705 POINTS
TCL: Running for 1500000 steps
ETITLE: TS BOND ANGLE DIHED IMPRP ELECT VDW BOUNDARY MISC KINETIC TOTAL TEMP POTENTIAL TOTALAVG TEMPAVG PRESSURE GPRESSURE VOLUME PRESSAVG GPRESSAVG
ENERGY: 0 1.6534 10.0447 8.1346 0.0000 -10781.7170 1399.3008 0.0000 0.0000 1773.0119 -7589.5716 298.1023 -9362.5835 -7589.5716 298.1023 -523.0438 -447.6822 30894.0862 -523.0438 -447.6822
ENERGY: 300000 6.3236 7.6617 9.2400 0.0000 -10855.1417 1446.7095 0.0000 0.0000 1795.8951 -7589.3116 301.9497 -9385.2068 -7576.6414 298.6807 119.1359 203.8537 30242.4902 8.2205 75.7333
ENERGY: 600000 2.0941 18.1963 7.1053 0.0000 -10768.5242 1456.0000 0.0000 0.0000 1805.5162 -7479.6123 303.5674 -9285.1286 -7559.0900 300.9839 26.1766 43.6195 31210.1434 -63.7004 -2.6269
ENERGY: 900000 5.3167 12.5245 11.2337 0.0000 -10846.3409 1446.7693 0.0000 0.0000 1775.1181 -7595.3787 298.4564 -9370.4967 -7560.9973 301.6405 44.2725 82.3625 30571.6668 -2.9421 52.7876
ENERGY: 1200000 2.5126 15.5847 9.5345 0.0000 -10884.8430 1555.5978 0.0000 0.0000 1778.5803 -7523.0331 299.0385 -9301.6134 -7568.5546 300.8257 1098.8966 1224.4283 30193.0249 114.8750 165.7123
ENERGY: 1500000 3.7889 14.3356 10.5833 0.0000 -10955.1401 1494.9140 0.0000 0.0000 1801.3128 -7630.2054 302.8606 -9431.5183 -7576.2308 301.0050 -44.6896 60.9440 30724.5034 85.7158 134.9169
TCL: Running FEP window  15: Lambda1 0.29999999999999966 Lambda2 0.24999999999999967 [dLambda -0.04999999999999999]
TCL: Setting parameter firsttimestep to 0
TCL: Setting parameter alchLambda to 0.29999999999999966
Info: NONBONDED TABLE R-SQUARED SPACING: 0.0625
Info: NONBONDED TABLE SIZE: 705 POINTS
TCL: Setting parameter alchLambda2 to 0.24999999999999967
Info: NONBONDED TABLE R-SQUARED SPACING: 0.0625
Info: NONBONDED TABLE SIZE: 705 POINTS
TCL: Running for 1500000 steps
ETITLE: TS BOND ANGLE DIHED IMPRP ELECT VDW BOUNDARY MISC KINETIC TOTAL TEMP POTENTIAL TOTALAVG TEMPAVG PRESSURE GPRESSURE VOLUME PRESSAVG GPRESSAVG
ENERGY: 0 3.7890 14.3356 10.5833 0.0000 -10955.1386 1494.8140 0.0000 0.0000 1800.4523 -7631.1644 302.7159 -9431.6167 -7631.1644 302.7159 -37.6653 54.7632 30724.5034 -37.6653 54.7632
ENERGY: 300000 3.7856 4.9510 9.8186 0.0000 -10810.5103 1406.4911 0.0000 0.0000 1780.7568 -7604.7071 299.4045 -9385.4639 -7605.9428 300.5697 -696.6538 -581.7393 30570.7361 -441.5262 -343.2138
ENERGY: 600000 1.7865 12.7450 10.6412 0.0000 -10765.3199 1409.0680 0.0000 0.0000 1808.8334 -7522.2458 304.1251 -9331.0793 -7587.7499 300.6718 -366.5668 -250.6629 30636.1066 -402.9924 -313.3876
ENERGY: 900000 2.2199 11.8992 10.4628 0.0000 -10701.2836 1356.6479 0.0000 0.0000 1713.6747 -7606.3791 288.1257 -9320.0538 -7581.2327 299.9824 -747.2313 -694.5704 30694.9169 -335.9703 -261.3034
ENERGY: 1200000 3.0562 11.4914 7.6352 0.0000 -10852.4957 1425.8397 0.0000 0.0000 1804.1710 -7600.3023 303.3412 -9404.4733 -7571.2397 301.1209 -256.4021 -189.3550 30579.6072 -351.4598 -278.7608
ENERGY: 1500000 3.1063 10.1463 8.7360 0.0000 -10890.2863 1478.4097 0.0000 0.0000 1782.3694 -7607.5185 299.6756 -9389.8880 -7574.9709 299.7280 -88.8225 41.7687 30468.3953 -289.9399 -213.5931
TCL: Running FEP window  16: Lambda1 0.24999999999999967 Lambda2 0.19999999999999968 [dLambda -0.04999999999999999]
TCL: Setting parameter firsttimestep to 0
TCL: Setting parameter alchLambda to 0.24999999999999967
Info: NONBONDED TABLE R-SQUARED SPACING: 0.0625
Info: NONBONDED TABLE SIZE: 705 POINTS
TCL: Setting parameter alchLambda2 to 0.19999999999999968
Info: NONBONDED TABLE R-SQUARED SPACING: 0.0625
Info: NONBONDED TABLE SIZE: 705 POINTS
TCL: Running for 1500000 steps
ETITLE: TS BOND ANGLE DIHED IMPRP ELECT VDW BOUNDARY MISC KINETIC TOTAL TEMP POTENTIAL TOTALAVG TEMPAVG PRESSURE GPRESSURE VOLUME PRESSAVG GPRESSAVG
ENERGY: 0 3.1063 10.1463 8.7360 0.0000 -10890.2852 1478.7749 0.0000 0.0000 1781.4784 -7608.0433 299.5258 -9389.5217 -7608.0433 299.5258 -50.4980 36.7813 30468.3953 -50.4980 36.7813
ENERGY: 300000 4.8474 12.8067 6.3537 0.0000 -10716.9920 1383.2638 0.0000 0.0000 1761.5557 -7548.1646 296.1761 -9309.7204 -7562.7357 296.9524 -596.9397 -590.9442 30824.1159 -188.9211 -142.2371
ENERGY: 600000 4.4462 12.1638 9.3224 0.0000 -10839.1754 1517.8945 0.0000 0.0000 1807.0051 -7488.3434 303.8177 -9295.3484 -7548.1988 299.0955 613.1167 656.3747 30775.2672 2.2844 42.6412
ENERGY: 900000 2.6776 12.1645 11.2523 0.0000 -10881.6712 1437.4650 0.0000 0.0000 1747.3273 -7670.7845 293.7839 -9418.1118 -7572.9121 299.4690 -324.9946 -200.5581 30274.7431 56.4606 109.7631
ENERGY: 1200000 5.7236 13.7304 9.8592 0.0000 -10704.5840 1354.8582 0.0000 0.0000 1821.1652 -7499.2475 306.1985 -9320.4127 -7556.7442 299.7834 -1030.3443 -1033.0700 31051.6215 -83.1917 -41.6000
ENERGY: 1500000 3.3654 11.4749 7.8954 0.0000 -10714.8083 1382.6895 0.0000 0.0000 1726.0351 -7583.3480 290.2039 -9309.3831 -7563.5845 298.7491 -568.9737 -492.4957 30531.1107 -91.0829 -45.5521
TCL: Running FEP window  17: Lambda1 0.19999999999999968 Lambda2 0.1499999999999997 [dLambda -0.04999999999999999]
TCL: Setting parameter firsttimestep to 0
TCL: Setting parameter alchLambda to 0.19999999999999968
Info: NONBONDED TABLE R-SQUARED SPACING: 0.0625
Info: NONBONDED TABLE SIZE: 705 POINTS
TCL: Setting parameter alchLambda2 to 0.1499999999999997
Info: NONBONDED TABLE R-SQUARED SPACING: 0.0625
Info: NONBONDED TABLE SIZE: 705 POINTS
TCL: Running for 1500000 steps
ETITLE: TS BOND ANGLE DIHED IMPRP ELECT VDW BOUNDARY MISC KINETIC TOTAL TEMP POTENTIAL TOTALAVG TEMPAVG PRESSURE GPRESSURE VOLUME PRESSAVG GPRESSAVG
ENERGY: 0 3.3654 11.4749 7.8954 0.0000 -10714.8065 1382.5256 0.0000 0.0000 1725.1551 -7584.3901 290.0560 -9309.5452 -7584.3901 290.0560 -592.9498 -503.0289 30531.1107 -592.9498 -503.0289
ENERGY: 300000 7.5699 14.7133 11.6576 0.0000 -10938.0068 1513.2807 0.0000 0.0000 1838.6501 -7552.1353 309.1383 -9390.7854 -7537.5368 303.9314 142.2090 310.8262 30435.7686 -22.7921 69.0419
ENERGY: 600000 2.2334 10.8977 7.9948 0.0000 -10877.5428 1488.1467 0.0000 0.0000 1755.6360 -7612.6341 295.1808 -9368.2701 -7557.9380 300.7622 177.9623 247.5023 30631.1400 -63.0049 -0.2709
ENERGY: 900000 4.0094 16.6461 9.1834 0.0000 -10853.9686 1435.8329 0.0000 0.0000 1776.8683 -7611.4284 298.7507 -9388.2968 -7565.8733 299.8955 -119.0305 -78.2934 30257.0166 -82.0385 -28.4091
ENERGY: 1200000 2.9728 13.4582 11.3737 0.0000 -10828.6361 1436.5858 0.0000 0.0000 1814.9512 -7549.2944 305.1537 -9364.2456 -7558.0455 299.9127 -38.9659 5.0839 30508.5126 -72.6933 -20.1676
ENERGY: 1500000 2.9553 13.7938 8.3249 0.0000 -10795.0311 1441.3071 0.0000 0.0000 1768.8708 -7559.7791 297.4060 -9328.6499 -7562.8934 298.7850 -91.7883 -23.1991 30862.9905 -61.1696 -6.5783
TCL: Running FEP window  18: Lambda1 0.1499999999999997 Lambda2 0.09999999999999969 [dLambda -0.05 ]
TCL: Setting parameter firsttimestep to 0
TCL: Setting parameter alchLambda to 0.1499999999999997
Info: NONBONDED TABLE R-SQUARED SPACING: 0.0625
Info: NONBONDED TABLE SIZE: 705 POINTS
TCL: Setting parameter alchLambda2 to 0.09999999999999969
Info: NONBONDED TABLE R-SQUARED SPACING: 0.0625
Info: NONBONDED TABLE SIZE: 705 POINTS
TCL: Running for 1500000 steps
ETITLE: TS BOND ANGLE DIHED IMPRP ELECT VDW BOUNDARY MISC KINETIC TOTAL TEMP POTENTIAL TOTALAVG TEMPAVG PRESSURE GPRESSURE VOLUME PRESSAVG GPRESSAVG
ENERGY: 0 2.9553 13.7938 8.3249 0.0000 -10795.0302 1440.7451 0.0000 0.0000 1767.9735 -7561.2374 297.2552 -9329.2110 -7561.2374 297.2552 -125.3294 -30.4455 30862.9905 -125.3294 -30.4455
ENERGY: 300000 3.8947 8.0141 9.6740 0.0000 -10909.7243 1510.6931 0.0000 0.0000 1794.2795 -7583.1689 301.6781 -9377.4485 -7583.7018 298.5901 296.9166 330.9325 30531.3624 -159.3963 -99.6452
ENERGY: 600000 3.3452 10.9004 11.0268 0.0000 -10838.4253 1435.1692 0.0000 0.0000 1786.8970 -7591.0868 300.4368 -9377.9838 -7580.1558 299.0901 -80.6229 13.6496 29942.6330 63.1339 134.7209
ENERGY: 900000 3.9084 11.0598 12.0384 0.0000 -10831.0177 1468.2453 0.0000 0.0000 1859.9939 -7475.7719 312.7269 -9335.7658 -7567.4816 299.7447 244.0709 263.3936 30464.8233 20.5807 86.4366
ENERGY: 1200000 2.9350 10.8311 9.3149 0.0000 -10835.1205 1453.8460 0.0000 0.0000 1741.1364 -7617.0572 292.7430 -9358.1936 -7561.7267 299.7546 -166.4378 -123.1056 30633.3103 -41.4014 23.5064
ENERGY: 1500000 4.4413 6.9461 9.3205 0.0000 -10814.4293 1497.3182 0.0000 0.0000 1780.2418 -7516.1613 299.3179 -9296.4032 -7568.2600 299.0546 627.6005 689.4567 30408.1789 33.8490 101.2115
TCL: Running FEP window  19: Lambda1 0.09999999999999969 Lambda2 0.049999999999999684 [dLambda -0.05 ]
TCL: Setting parameter firsttimestep to 0
TCL: Setting parameter alchLambda to 0.09999999999999969
Info: NONBONDED TABLE R-SQUARED SPACING: 0.0625
Info: NONBONDED TABLE SIZE: 705 POINTS
TCL: Setting parameter alchLambda2 to 0.049999999999999684
Info: NONBONDED TABLE R-SQUARED SPACING: 0.0625
Info: NONBONDED TABLE SIZE: 705 POINTS
TCL: Running for 1500000 steps
ETITLE: TS BOND ANGLE DIHED IMPRP ELECT VDW BOUNDARY MISC KINETIC TOTAL TEMP POTENTIAL TOTALAVG TEMPAVG PRESSURE GPRESSURE VOLUME PRESSAVG GPRESSAVG
ENERGY: 0 4.4413 6.9461 9.3205 0.0000 -10814.4301 1496.1605 0.0000 0.0000 1779.3603 -7518.2013 299.1697 -9297.5617 -7518.2013 299.1697 621.5176 679.9982 30408.1789 621.5176 679.9982
ENERGY: 300000 2.2284 17.1170 8.6503 0.0000 -10858.3487 1525.2985 0.0000 0.0000 1747.1083 -7557.9462 293.7470 -9305.0545 -7529.4261 299.3284 511.8109 532.0133 30877.4404 132.8779 198.2366
ENERGY: 600000 7.2060 5.5093 8.4040 0.0000 -10748.0618 1406.3628 0.0000 0.0000 1786.8472 -7533.7325 300.4285 -9320.5797 -7552.6993 298.4024 -635.5410 -564.8478 30860.2171 44.9385 97.2404
ENERGY: 900000 3.6320 19.2726 9.0288 0.0000 -10941.7626 1488.2625 0.0000 0.0000 1828.1165 -7593.4501 307.3672 -9421.5666 -7566.9515 299.7713 -1.0749 22.9368 30545.6366 41.3926 93.4614
ENERGY: 1200000 3.2391 10.4382 8.8720 0.0000 -10843.0703 1408.1085 0.0000 0.0000 1768.7326 -7643.6800 297.3828 -9412.4126 -7571.0788 299.7743 -395.0974 -326.9842 30278.5378 44.0347 101.7898
ENERGY: 1500000 2.2370 11.2196 11.8323 0.0000 -10884.1720 1439.2977 0.0000 0.0000 1782.3618 -7637.2236 299.6743 -9419.5853 -7577.2300 299.2213 -327.8026 -229.7523 30426.1365 25.9266 90.1782
TCL: Running FEP window  20: Lambda1 0.049999999999999684 Lambda2 0.0    [dLambda -0.049999999999999684]
TCL: Setting parameter firsttimestep to 0
TCL: Setting parameter alchLambda to 0.049999999999999684
Info: NONBONDED TABLE R-SQUARED SPACING: 0.0625
Info: NONBONDED TABLE SIZE: 705 POINTS
TCL: Setting parameter alchLambda2 to 0.0
Info: NONBONDED TABLE R-SQUARED SPACING: 0.0625
Info: NONBONDED TABLE SIZE: 705 POINTS
TCL: Running for 1500000 steps
ETITLE: TS BOND ANGLE DIHED IMPRP ELECT VDW BOUNDARY MISC KINETIC TOTAL TEMP POTENTIAL TOTALAVG TEMPAVG PRESSURE GPRESSURE VOLUME PRESSAVG GPRESSAVG
ENERGY: 0 2.2370 11.2196 11.8323 0.0000 -10884.1727 1438.2770 0.0000 0.0000 1781.4735 -7639.1333 299.5250 -9420.6068 -7639.1333 299.5250 -322.3184 -237.0066 30426.1365 -322.3184 -237.0066
ENERGY: 300000 1.0509 7.6718 11.3842 0.0000 -10662.7908 1411.1834 0.0000 0.0000 1794.2455 -7437.2548 301.6724 -9231.5004 -7584.0997 300.4883 52.1906 -7.3594 30816.4396 -263.3293 -232.0788
ENERGY: 600000 6.9307 10.1079 8.5605 0.0000 -10744.6791 1428.4721 0.0000 0.0000 1767.0783 -7523.5295 297.1047 -9290.6078 -7590.9672 299.7295 -240.6470 -156.6314 30416.0175 -337.4039 -294.4718
ENERGY: 900000 2.7631 9.9539 10.2199 0.0000 -10931.7014 1528.6587 0.0000 0.0000 1736.0539 -7644.0519 291.8884 -9380.1058 -7580.0254 299.9189 362.9267 384.1419 30625.0600 -274.6472 -229.9623
ENERGY: 1200000 2.1363 14.1407 8.0891 0.0000 -10937.5880 1487.3236 0.0000 0.0000 1789.2089 -7636.6895 300.8255 -9425.8983 -7580.9004 299.3382 55.0348 202.7357 30113.7750 -113.6665 -57.4219
ENERGY: 1500000 3.1215 10.9973 10.3436 0.0000 -10990.4644 1571.8420 0.0000 0.0000 1804.9423 -7589.2176 303.4709 -9394.1600 -7586.8899 298.7067 446.4874 555.3612 30672.5636 -64.3376 -2.9759
TCL: Exiting due to exit command.
