Info: SIMULATION PARAMETERS:
Info: TIMESTEP               2
Info: NUMBER OF STEPS        0
Info: STEPS PER CYCLE        10
Info: PERIODIC CELL BASIS 1  30.3042 0 0
Info: PERIODIC CELL BASIS 2  0 29.5884 0
Info: PERIODIC CELL BASIS 3  0 0 34.0002
Info: PERIODIC CELL CENTER   0 0 0
Info: WRAPPING WATERS AROUND PERIODIC BOUNDARIES ON OUTPUT.
Info: WRAPPING ALL CLUSTERS AROUND PERIODIC BOUNDARIES ON OUTPUT.
Info: FIRST LDB TIMESTEP     50
Info: LAST LDB TIMESTEP     -1
Info: HOM BACKGROUND SCALING 1
Info: PME BACKGROUND SCALING 1
Info: MIN ATOMS PER PATCH    40
Info: EMPTY PATCH LOAD       40 ATOMS
Info: VELOCITY FILE          mobley_2078467_equil.vel
Info: CENTER OF MASS MOVING INITIALLY? NO
Info: DIELECTRIC             1
Info: EXCLUDE                SCALED ONE-FOUR
Info: 1-4 ELECTROSTATICS SCALED BY 0.833333
Info: MODIFIED 1-4 VDW PARAMETERS WILL BE USED
Info: DCD FILENAME           mobley_2078467_prod.dcd
Info: DCD FREQUENCY          100000
Info: DCD FIRST STEP         100000
Info: DCD FILE WILL CONTAIN UNIT CELL DATA
Info: XST FILENAME           mobley_2078467_prod.xst
Info: XST FREQUENCY          100000
Info: NO VELOCITY DCD OUTPUT
Info: NO FORCE DCD OUTPUT
Info: OUTPUT FILENAME        mobley_2078467_prod
Info: BINARY OUTPUT FILES WILL BE USED
Info: RESTART FILENAME       mobley_2078467_prod.restart
Info: RESTART FREQUENCY      100000
Info: BINARY RESTART FILES WILL BE USED
Info: CUTOFF                 9
Info: PAIRLIST DISTANCE      11
Info: PAIRLIST SHRINK RATE   0.01
Info: PAIRLIST GROW RATE     0.01
Info: PAIRLIST TRIGGER       0.3
Info: PAIRLISTS PER CYCLE    2
Info: PAIRLISTS ENABLED
Info: MARGIN                 2
Info: HYDROGEN GROUP CUTOFF  2.5
Info: PATCH DIMENSION        15.5
Info: ENERGY OUTPUT STEPS    100000
Info: ENERGY EVALUATION STEPS    100000
Info: OUTPUT ENERGY PRECISION 4
Info: CROSSTERM ENERGY INCLUDED IN DIHEDRAL
Info: TIMING OUTPUT STEPS    1000000
Info: PRESSURE OUTPUT STEPS  100000
Info: ALCHEMICAL FEP ON
Info: FEP CURRENT LAMBDA VALUE     1
Info: FEP COMPARISON LAMBDA VALUE  0.95
Info: FEP INTRA-ALCHEMICAL NON-BONDED INTERACTIONS WILL BE RETAINED
Info: FEP INTRA-ALCHEMICAL BONDED INTERACTIONS WILL BE RETAINED
Info: FEP VDW SHIFTING COEFFICIENT 5
Info: FEP ELEC. ACTIVE FOR ANNIHILATED PARTICLES BETWEEN LAMBDA = 0 AND LAMBDA = 0.5
Info: FEP ELEC. ACTIVE FOR EXNIHILATED PARTICLES BETWEEN LAMBDA = 0.5 AND LAMBDA = 1
Info: FEP VDW ACTIVE FOR ANNIHILATED PARTICLES BETWEEN LAMBDA = 0 AND LAMBDA = 1
Info: FEP VDW ACTIVE FOR EXNIHILATED PARTICLES BETWEEN LAMBDA = 0 AND LAMBDA = 1
Info: FEP BOND ACTIVE FOR ANNIHILATED PARTICLES BETWEEN LAMBDA = 1 AND LAMBDA = 1
Info: FEP BOND ACTIVE FOR EXNIHILATED PARTICLES BETWEEN LAMBDA = 0 AND LAMBDA = 0
Info: LANGEVIN DYNAMICS ACTIVE
Info: LANGEVIN TEMPERATURE   300
Info: LANGEVIN USING BBK INTEGRATOR
Info: LANGEVIN DAMPING COEFFICIENT IS 1 INVERSE PS
Info: LANGEVIN DYNAMICS APPLIED TO HYDROGENS
Info: LANGEVIN PISTON PRESSURE CONTROL ACTIVE
Info:        TARGET PRESSURE IS 1.01325 BAR
Info:     OSCILLATION PERIOD IS 50 FS
Info:             DECAY TIME IS 25 FS
Info:     PISTON TEMPERATURE IS 300 K
Info:       PRESSURE CONTROL IS GROUP-BASED
Info:    INITIAL STRAIN RATE IS -8.35297e-06 -8.35297e-06 -8.35297e-06
Info:       CELL FLUCTUATION IS ISOTROPIC
Info: PARTICLE MESH EWALD (PME) ACTIVE
Info: PME TOLERANCE               1e-06
Info: PME EWALD COEFFICIENT       0.348832
Info: PME INTERPOLATION ORDER     4
Info: PME GRID DIMENSIONS         32 32 36
Info: PME MAXIMUM GRID SPACING    1
Info: PME CALCULATION WILL BE PERFORMED ON GPU
Info: FULL ELECTROSTATIC EVALUATION FREQUENCY      2
Info: USING VERLET I (r-RESPA) MTS SCHEME.
Info: C1 SPLITTING OF LONG RANGE ELECTROSTATICS
Info: PLACING ATOMS IN PATCHES BY HYDROGEN GROUPS
Info: RIGID BONDS TO HYDROGEN : ALL
Info:         ERROR TOLERANCE : 1e-08
Info:          MAX ITERATIONS : 100
Info: RIGID WATER USING SETTLE ALGORITHM
Info: RANDOM NUMBER SEED     1744001136
Info: USE HYDROGEN BONDS?    NO
Info: Using AMBER format force field!
Info: AMBER PARM FILE        mobley_2078467.prmtop
Info: COORDINATE PDB         mobley_2078467.pdb
Info: Exclusions will be read from PARM file!
Info: SCNB (VDW SCALING)     2
Info: USING ARITHMETIC MEAN TO COMBINE L-J SIGMA PARAMETERS
Info: BINARY COORDINATES     mobley_2078467_equil.coor
Info: SUMMARY OF PARAMETERS:
Info: 11 BONDS
Info: 15 ANGLES
Info:   15 HARMONIC
Info:   0 COSINE-BASED
Info: 11 DIHEDRAL
Info: 0 IMPROPER
Info: 0 CROSSTERM
Info: 0 VDW
Info: 36 VDW_PAIRS
Info: 0 NBTHOLE_PAIRS
Info: To read alchdata from file: mobley_2078467.pdb
Info: To read alchflag data from column: 5
Info: STRUCTURE SUMMARY:
Info: 2955 ATOMS
Info: 2955 BONDS
Info: 58 ANGLES
Info: 90 DIHEDRALS
Info: 0 IMPROPERS
Info: 0 CROSSTERMS
Info: 3090 EXCLUSIONS
Info: 2940 RIGID BONDS
Info: ALCH: 0 ATOMS TO DISAPPEAR IN FINAL STATE
Info: ALCH: 33 ATOMS TO APPEAR IN FINAL STATE
Info: 5925 DEGREES OF FREEDOM
Info: 989 HYDROGEN GROUPS
Info: 4 ATOMS IN LARGEST HYDROGEN GROUP
Info: 989 MIGRATION GROUPS
Info: 4 ATOMS IN LARGEST MIGRATION GROUP
Info: TOTAL MASS = 17753.9 amu
Info: TOTAL CHARGE = -0.000199996 e
Info: MASS DENSITY = 0.967042 g/cm^3
Info: ATOM DENSITY = 0.0969284 atoms/A^3
Info: ADDED 0 IMPLICIT EXCLUSIONS
Info: NONBONDED TABLE R-SQUARED SPACING: 0.0625
Info: NONBONDED TABLE SIZE: 705 POINTS
Info: REMOVING COM VELOCITY -0.14653 0.0952688 0.0369647
Info: Use 3D box decompostion in PME FFT.
Info: Updated CUDA force table with 4096 elements.
Info: Updated CUDA LJ table with 8 x 8 elements.
Info: Found 32 unique exclusion lists needing 132 bytes
TCL: Running for 1500000 steps
ETITLE: TS BOND ANGLE DIHED IMPRP ELECT VDW BOUNDARY MISC KINETIC TOTAL TEMP POTENTIAL TOTALAVG TEMPAVG PRESSURE GPRESSURE VOLUME PRESSAVG GPRESSAVG
ENERGY: 0 5.8312 11.1018 4.6033 0.0000 -10770.3511 1494.9268 0.0000 0.0000 1752.5770 -7501.3110 297.7002 -9253.8880 -7501.3110 297.7002 396.1505 482.2387 30486.4254 396.1505 482.2387
ENERGY: 300000 7.9085 17.3809 4.6972 0.0000 -10588.5779 1371.4112 0.0000 0.0000 1738.9323 -7448.2478 295.3825 -9187.1801 -7469.3351 297.9856 -203.9513 -183.1694 30407.8665 123.5685 163.0494
ENERGY: 600000 7.7018 13.9400 3.7832 0.0000 -10672.1141 1417.7533 0.0000 0.0000 1754.9500 -7473.9856 298.1033 -9228.9356 -7465.2297 298.7390 77.5141 111.1494 30115.7018 86.9378 117.9760
ENERGY: 900000 6.4853 10.2604 7.3994 0.0000 -10654.5794 1404.7688 0.0000 0.0000 1780.5896 -7445.0758 302.4586 -9225.6654 -7443.4273 300.6042 -142.0995 -61.7884 30369.6210 -27.6417 15.1816
ENERGY: 1200000 3.9804 21.5524 8.9304 0.0000 -10597.6538 1351.5354 0.0000 0.0000 1785.4220 -7426.2332 303.2794 -9211.6552 -7447.9765 300.4655 -592.1393 -462.9524 30129.8899 -71.0621 -21.5163
ENERGY: 1500000 3.2245 12.9677 4.7661 0.0000 -10594.5349 1388.1104 0.0000 0.0000 1751.4689 -7433.9972 297.5120 -9185.4661 -7444.0157 300.1611 -195.9339 -120.5520 30555.3789 -63.6821 -8.2427
TCL: Running FEP window   2: Lambda1 0.95   Lambda2 0.8999999999999999 [dLambda -0.050000000000000044]
TCL: Setting parameter firsttimestep to 0
TCL: Setting parameter alchLambda to 0.95
Info: NONBONDED TABLE R-SQUARED SPACING: 0.0625
Info: NONBONDED TABLE SIZE: 705 POINTS
TCL: Setting parameter alchLambda2 to 0.8999999999999999
Info: NONBONDED TABLE R-SQUARED SPACING: 0.0625
Info: NONBONDED TABLE SIZE: 705 POINTS
TCL: Running for 1500000 steps
ETITLE: TS BOND ANGLE DIHED IMPRP ELECT VDW BOUNDARY MISC KINETIC TOTAL TEMP POTENTIAL TOTALAVG TEMPAVG PRESSURE GPRESSURE VOLUME PRESSAVG GPRESSAVG
ENERGY: 0 3.2245 12.9677 4.7661 0.0000 -10590.9404 1387.8491 0.0000 0.0000 1750.5464 -7431.5865 297.3553 -9182.1329 -7431.5865 297.3553 -230.7217 -139.0798 30555.3789 -230.7217 -139.0798
ENERGY: 300000 6.1307 14.3254 4.0502 0.0000 -10725.1465 1484.8854 0.0000 0.0000 1813.0097 -7402.7452 307.9656 -9215.7549 -7471.3601 297.4964 472.8690 577.2960 30278.6431 244.0605 324.1644
ENERGY: 600000 4.5166 11.7263 3.6582 0.0000 -10568.2923 1370.9500 0.0000 0.0000 1754.6891 -7422.7520 298.0590 -9177.4411 -7472.7942 297.9990 -159.3643 -150.9700 30241.3046 79.3878 139.8419
ENERGY: 900000 6.3524 11.6769 4.3449 0.0000 -10775.8238 1475.8968 0.0000 0.0000 1721.0282 -7556.5247 292.3412 -9277.5529 -7463.4409 299.0511 -63.2902 -44.2733 30594.5035 15.0778 74.7826
ENERGY: 1200000 3.9586 16.9993 3.9677 0.0000 -10823.6458 1473.6307 0.0000 0.0000 1754.4986 -7570.5909 298.0266 -9325.0896 -7472.1108 299.2936 49.7417 113.4213 30258.2558 -44.8970 11.1122
ENERGY: 1500000 3.1342 16.2191 3.3819 0.0000 -10593.7974 1350.3577 0.0000 0.0000 1728.1349 -7492.5695 293.5484 -9220.7044 -7466.1346 299.7815 -443.5322 -321.6794 30081.1390 -63.1786 -8.1610
TCL: Running FEP window   3: Lambda1 0.8999999999999999 Lambda2 0.8499999999999999 [dLambda -0.050000000000000044]
TCL: Setting parameter firsttimestep to 0
TCL: Setting parameter alchLambda to 0.8999999999999999
Info: NONBONDED TABLE R-SQUARED SPACING: 0.0625
Info: NONBONDED TABLE SIZE: 705 POINTS
TCL: Setting parameter alchLambda2 to 0.8499999999999999
Info: NONBONDED TABLE R-SQUARED SPACING: 0.0625
Info: NONBONDED TABLE SIZE: 705 POINTS
TCL: Running for 1500000 steps
ETITLE: TS BOND ANGLE DIHED IMPRP ELECT VDW BOUNDARY MISC KINETIC TOTAL TEMP POTENTIAL TOTALAVG TEMPAVG PRESSURE GPRESSURE VOLUME PRESSAVG GPRESSAVG
ENERGY: 0 3.1342 16.2191 3.3819 0.0000 -10590.0938 1350.0834 0.0000 0.0000 1727.2608 -7490.0144 293.3999 -9217.2752 -7490.0144 293.3999 -415.0800 -339.2423 30081.1390 -415.0800 -339.2423
ENERGY: 300000 6.2362 10.8319 6.5678 0.0000 -10590.9257 1335.9935 0.0000 0.0000 1823.7914 -7407.5049 309.7970 -9231.2963 -7444.6178 302.8291 -895.0333 -796.8471 30390.3591 -333.2907 -251.4672
ENERGY: 600000 6.1019 11.8443 4.6481 0.0000 -10628.8832 1399.0235 0.0000 0.0000 1813.5717 -7393.6938 308.0610 -9207.2655 -7437.7944 301.8732 -290.0071 -294.5739 30688.5284 -244.6514 -181.4424
ENERGY: 900000 4.9065 11.8484 3.9986 0.0000 -10695.7035 1435.9418 0.0000 0.0000 1806.4564 -7432.5518 306.8524 -9239.0082 -7439.1784 302.3973 259.9446 331.1052 30348.8689 -181.2292 -111.3734
ENERGY: 1200000 6.7429 16.4648 5.4267 0.0000 -10700.7483 1461.7851 0.0000 0.0000 1768.3069 -7442.0219 300.3721 -9210.3288 -7438.9813 302.6450 67.6185 40.6146 30666.8031 -184.0514 -126.6540
ENERGY: 1500000 3.8006 17.4484 4.1690 0.0000 -10651.3963 1440.3095 0.0000 0.0000 1753.7382 -7431.9306 297.8974 -9185.6688 -7445.0419 301.5878 -284.0395 -194.8040 30957.6989 -174.0240 -115.4029
TCL: Running FEP window   4: Lambda1 0.8499999999999999 Lambda2 0.7999999999999998 [dLambda -0.050000000000000044]
TCL: Setting parameter firsttimestep to 0
TCL: Setting parameter alchLambda to 0.8499999999999999
Info: NONBONDED TABLE R-SQUARED SPACING: 0.0625
Info: NONBONDED TABLE SIZE: 705 POINTS
TCL: Setting parameter alchLambda2 to 0.7999999999999998
Info: NONBONDED TABLE R-SQUARED SPACING: 0.0625
Info: NONBONDED TABLE SIZE: 705 POINTS
TCL: Running for 1500000 steps
ETITLE: TS BOND ANGLE DIHED IMPRP ELECT VDW BOUNDARY MISC KINETIC TOTAL TEMP POTENTIAL TOTALAVG TEMPAVG PRESSURE GPRESSURE VOLUME PRESSAVG GPRESSAVG
ENERGY: 0 3.8006 17.4484 4.1690 0.0000 -10648.4454 1439.3384 0.0000 0.0000 1752.8711 -7430.8180 297.7502 -9183.6890 -7430.8180 297.7502 -289.9646 -208.9790 30957.6989 -289.9646 -208.9790
ENERGY: 300000 4.2335 13.2888 6.8796 0.0000 -10554.3398 1379.1400 0.0000 0.0000 1751.4824 -7399.3154 297.5143 -9150.7978 -7440.0765 300.0697 -424.1908 -300.6035 30800.4634 -212.3108 -117.5637
ENERGY: 600000 3.9903 9.9644 7.1290 0.0000 -10693.3327 1397.7919 0.0000 0.0000 1727.0636 -7547.3935 293.3664 -9274.4572 -7482.6366 295.9436 -316.0226 -193.4721 30132.4257 -203.4533 -120.8548
ENERGY: 900000 5.2077 16.0169 11.2669 0.0000 -10618.8059 1328.2331 0.0000 0.0000 1725.1434 -7532.9379 293.0402 -9258.0813 -7474.5643 297.4410 -1122.1364 -1075.4902 30569.8670 -256.7939 -172.4912
ENERGY: 1200000 6.9827 19.6525 5.3826 0.0000 -10753.6091 1465.3624 0.0000 0.0000 1763.9122 -7492.3167 299.6257 -9256.2289 -7465.8290 298.7776 -38.9393 1.9515 30622.1863 -186.6105 -110.3282
ENERGY: 1500000 4.6685 14.3161 5.9641 0.0000 -10696.3290 1428.5615 0.0000 0.0000 1794.6450 -7448.1738 304.8461 -9242.8188 -7463.7606 300.0050 -219.4589 -174.3040 30456.3553 -152.7046 -79.9010
TCL: Running FEP window   5: Lambda1 0.7999999999999998 Lambda2 0.7499999999999998 [dLambda -0.050000000000000044]
TCL: Setting parameter firsttimestep to 0
TCL: Setting parameter alchLambda to 0.7999999999999998
Info: NONBONDED TABLE R-SQUARED SPACING: 0.0625
Info: NONBONDED TABLE SIZE: 705 POINTS
TCL: Setting parameter alchLambda2 to 0.7499999999999998
Info: NONBONDED TABLE R-SQUARED SPACING: 0.0625
Info: NONBONDED TABLE SIZE: 705 POINTS
TCL: Running for 1500000 steps
ETITLE: TS BOND ANGLE DIHED IMPRP ELECT VDW BOUNDARY MISC KINETIC TOTAL TEMP POTENTIAL TOTALAVG TEMPAVG PRESSURE GPRESSURE VOLUME PRESSAVG GPRESSAVG
ENERGY: 0 4.6685 14.3161 5.9641 0.0000 -10693.7768 1428.7149 0.0000 0.0000 1793.7712 -7446.3420 304.6976 -9240.1132 -7446.3420 304.6976 -278.0148 -181.9744 30456.3553 -278.0148 -181.9744
ENERGY: 300000 3.2849 15.8189 4.1902 0.0000 -10650.5184 1421.0390 0.0000 0.0000 1764.2270 -7441.9583 299.6791 -9206.1853 -7455.4003 301.3481 103.6591 203.5075 30154.3108 267.8111 343.9730
ENERGY: 600000 5.3400 12.2184 3.7167 0.0000 -10679.4785 1438.1980 0.0000 0.0000 1717.7220 -7502.2833 291.7796 -9220.0053 -7452.9703 300.0254 -82.0648 -3.2176 30520.4291 35.5389 114.1498
ENERGY: 900000 7.7135 14.2100 6.1488 0.0000 -10729.8005 1449.4762 0.0000 0.0000 1767.9961 -7484.2559 300.3194 -9252.2520 -7472.2017 298.6241 -219.2700 -157.5699 30751.7158 21.9926 88.1224
ENERGY: 1200000 5.1711 14.6444 4.2963 0.0000 -10704.7636 1418.4241 0.0000 0.0000 1759.2259 -7503.0018 298.8296 -9262.2277 -7464.3571 298.7342 -202.6574 -215.6693 30579.1700 -103.7971 -47.5483
ENERGY: 1500000 7.6188 16.9756 5.7700 0.0000 -10707.0897 1467.3815 0.0000 0.0000 1814.0681 -7395.2756 308.1454 -9209.3438 -7463.1423 299.1850 -1.8537 84.2658 30424.9416 -131.6104 -72.9175
TCL: Running FEP window   6: Lambda1 0.7499999999999998 Lambda2 0.6999999999999997 [dLambda -0.050000000000000044]
TCL: Setting parameter firsttimestep to 0
TCL: Setting parameter alchLambda to 0.7499999999999998
Info: NONBONDED TABLE R-SQUARED SPACING: 0.0625
Info: NONBONDED TABLE SIZE: 705 POINTS
TCL: Setting parameter alchLambda2 to 0.6999999999999997
Info: NONBONDED TABLE R-SQUARED SPACING: 0.0625
Info: NONBONDED TABLE SIZE: 705 POINTS
TCL: Running for 1500000 steps
ETITLE: TS BOND ANGLE DIHED IMPRP ELECT VDW BOUNDARY MISC KINETIC TOTAL TEMP POTENTIAL TOTALAVG TEMPAVG PRESSURE GPRESSURE VOLUME PRESSAVG GPRESSAVG
ENERGY: 0 7.6188 16.9756 5.7700 0.0000 -10703.3879 1465.7431 0.0000 0.0000 1813.2096 -7394.0707 307.9995 -9207.2803 -7394.0707 307.9995 -27.6368 61.2530 30424.9416 -27.6368 61.2530
ENERGY: 300000 7.6836 11.9510 7.4646 0.0000 -10639.7737 1443.4614 0.0000 0.0000 1794.5248 -7374.6883 304.8256 -9169.2131 -7433.4148 302.4998 -82.6063 -13.6303 30662.8163 -221.2987 -140.2177
ENERGY: 600000 5.5317 17.4972 7.3409 0.0000 -10785.9531 1452.6249 0.0000 0.0000 1707.4121 -7595.5463 290.0283 -9302.9584 -7441.8121 301.2076 -220.3685 -183.2297 30264.2774 -355.8060 -278.5057
ENERGY: 900000 3.6268 19.3594 5.0319 0.0000 -10616.4232 1408.0672 0.0000 0.0000 1754.4268 -7425.9111 298.0144 -9180.3379 -7436.3953 301.4789 -130.2775 -81.4178 30539.0456 -219.5363 -139.5708
ENERGY: 1200000 3.5487 17.9342 5.5202 0.0000 -10671.4143 1458.8164 0.0000 0.0000 1795.4141 -7390.1807 304.9767 -9185.5948 -7428.4593 302.0131 203.0926 248.1835 30665.3256 -206.6067 -134.1183
ENERGY: 1500000 4.3916 11.6806 8.0335 0.0000 -10677.0969 1502.5411 0.0000 0.0000 1749.3343 -7401.1157 297.1494 -9150.4500 -7439.6552 300.8806 497.8663 573.4333 30779.3541 -76.8925 -8.0425
TCL: Running FEP window   7: Lambda1 0.6999999999999997 Lambda2 0.6499999999999997 [dLambda -0.050000000000000044]
TCL: Setting parameter firsttimestep to 0
TCL: Setting parameter alchLambda to 0.6999999999999997
Info: NONBONDED TABLE R-SQUARED SPACING: 0.0625
Info: NONBONDED TABLE SIZE: 705 POINTS
TCL: Setting parameter alchLambda2 to 0.6499999999999997
Info: NONBONDED TABLE R-SQUARED SPACING: 0.0625
Info: NONBONDED TABLE SIZE: 705 POINTS
TCL: Running for 1500000 steps
ETITLE: TS BOND ANGLE DIHED IMPRP ELECT VDW BOUNDARY MISC KINETIC TOTAL TEMP POTENTIAL TOTALAVG TEMPAVG PRESSURE GPRESSURE VOLUME PRESSAVG GPRESSAVG
ENERGY: 0 4.3916 11.6806 8.0335 0.0000 -10674.8454 1502.0782 0.0000 0.0000 1748.5024 -7400.1591 297.0081 -9148.6615 -7400.1591 297.0081 476.1069 561.6013 30779.3541 476.1069 561.6013
ENERGY: 300000 3.4979 13.8701 6.9909 0.0000 -10733.7349 1477.5434 0.0000 0.0000 1751.5782 -7480.2545 297.5306 -9231.8327 -7444.2591 296.6418 315.6377 324.9050 30339.7082 338.3410 398.0886
ENERGY: 600000 5.2262 11.8099 3.5135 0.0000 -10808.9360 1581.7616 0.0000 0.0000 1754.0635 -7452.5613 297.9527 -9206.6248 -7462.6341 298.9795 1299.0824 1395.9962 30513.4306 480.6186 536.0620
ENERGY: 900000 3.3432 7.0147 3.8998 0.0000 -10778.2305 1485.1466 0.0000 0.0000 1749.6945 -7529.1317 297.2106 -9278.8262 -7457.2124 299.1067 76.9990 101.8381 30320.9944 232.5740 285.0247
ENERGY: 1200000 3.3775 9.5405 4.5361 0.0000 -10605.8102 1509.1537 0.0000 0.0000 1739.3484 -7339.8541 295.4531 -9079.2025 -7440.7473 299.3583 994.3611 1088.2946 30640.4327 246.1537 300.1512
ENERGY: 1500000 3.8976 14.5089 4.3773 0.0000 -10649.7964 1462.9407 0.0000 0.0000 1775.2956 -7388.7764 301.5593 -9164.0720 -7444.1200 298.9991 271.6823 362.5843 30785.8916 202.1954 267.1715
TCL: Running FEP window   8: Lambda1 0.6499999999999997 Lambda2 0.5999999999999996 [dLambda -0.050000000000000044]
TCL: Setting parameter firsttimestep to 0
TCL: Setting parameter alchLambda to 0.6499999999999997
Info: NONBONDED TABLE R-SQUARED SPACING: 0.0625
Info: NONBONDED TABLE SIZE: 705 POINTS
TCL: Setting parameter alchLambda2 to 0.5999999999999996
Info: NONBONDED TABLE R-SQUARED SPACING: 0.0625
Info: NONBONDED TABLE SIZE: 705 POINTS
TCL: Running for 1500000 steps
ETITLE: TS BOND ANGLE DIHED IMPRP ELECT VDW BOUNDARY MISC KINETIC TOTAL TEMP POTENTIAL TOTALAVG TEMPAVG PRESSURE GPRESSURE VOLUME PRESSAVG GPRESSAVG
ENERGY: 0 3.8976 14.5089 4.3773 0.0000 -10648.8403 1463.2074 0.0000 0.0000 1774.4324 -7388.4167 301.4127 -9162.8492 -7388.4167 301.4127 268.1334 353.7053 30785.8916 268.1334 353.7053
ENERGY: 300000 7.6051 11.7466 5.2198 0.0000 -10671.5726 1373.5778 0.0000 0.0000 1765.7799 -7507.6434 299.9429 -9273.4233 -7419.0467 301.6768 -742.0118 -663.5405 30252.7543 -37.1316 26.9167
ENERGY: 600000 3.6934 12.8366 4.7962 0.0000 -10570.1759 1326.4897 0.0000 0.0000 1758.9168 -7463.4432 298.7771 -9222.3600 -7415.4888 302.0767 -1102.5173 -1063.9557 30452.0111 -273.1471 -214.0528
ENERGY: 900000 8.1994 13.1857 6.2710 0.0000 -10636.7620 1412.0738 0.0000 0.0000 1745.9558 -7451.0764 296.5755 -9197.0322 -7428.2155 300.2487 -254.1093 -188.6735 30422.1608 -262.6235 -204.0580
ENERGY: 1200000 6.6961 10.4572 5.8590 0.0000 -10664.2321 1412.9884 0.0000 0.0000 1703.3749 -7524.8565 289.3425 -9228.2314 -7428.4001 300.6687 -339.2987 -310.3654 30708.1955 -250.9834 -195.0095
ENERGY: 1500000 7.6365 16.6376 7.1827 0.0000 -10550.9756 1380.7243 0.0000 0.0000 1770.0007 -7368.7938 300.6599 -9138.7945 -7425.8946 300.2824 -453.8302 -347.2802 30594.0353 -251.4441 -191.2608
TCL: Running FEP window   9: Lambda1 0.5999999999999996 Lambda2 0.5499999999999996 [dLambda -0.050000000000000044]
TCL: Setting parameter firsttimestep to 0
TCL: Setting parameter alchLambda to 0.5999999999999996
Info: NONBONDED TABLE R-SQUARED SPACING: 0.0625
Info: NONBONDED TABLE SIZE: 705 POINTS
TCL: Setting parameter alchLambda2 to 0.5499999999999996
Info: NONBONDED TABLE R-SQUARED SPACING: 0.0625
Info: NONBONDED TABLE SIZE: 705 POINTS
TCL: Running for 1500000 steps
ETITLE: TS BOND ANGLE DIHED IMPRP ELECT VDW BOUNDARY MISC KINETIC TOTAL TEMP POTENTIAL TOTALAVG TEMPAVG PRESSURE GPRESSURE VOLUME PRESSAVG GPRESSAVG
ENERGY: 0 7.6365 16.6376 7.1827 0.0000 -10551.0271 1380.6253 0.0000 0.0000 1769.0711 -7369.8739 300.5020 -9138.9450 -7369.8739 300.5020 -450.1358 -359.4665 30594.0353 -450.1358 -359.4665
ENERGY: 300000 8.1367 17.2535 6.9248 0.0000 -10666.6782 1435.9525 0.0000 0.0000 1740.1192 -7458.2914 295.5841 -9198.4107 -7415.6494 303.3161 -147.8986 -93.5607 29955.6223 -376.5351 -300.2628
ENERGY: 600000 7.8495 13.7210 8.8681 0.0000 -10764.1484 1471.7452 0.0000 0.0000 1800.5220 -7461.4426 305.8443 -9261.9646 -7450.5392 301.2737 472.4731 482.9872 29932.7099 -78.5873 -28.3208
ENERGY: 900000 4.5559 14.8694 3.7182 0.0000 -10527.4782 1370.5729 0.0000 0.0000 1774.4101 -7359.3516 301.4089 -9133.7618 -7436.2277 301.4992 -165.1716 -131.1908 30367.0621 -158.9389 -118.5007
ENERGY: 1200000 10.0236 15.6643 4.0040 0.0000 -10588.3994 1356.5361 0.0000 0.0000 1822.4257 -7379.7459 309.5650 -9202.1715 -7435.9235 301.1621 -938.3923 -857.5601 30458.9000 -181.9716 -133.2401
ENERGY: 1500000 4.8258 14.5186 4.3676 0.0000 -10658.1668 1423.5149 0.0000 0.0000 1794.5485 -7416.3914 304.8297 -9210.9399 -7433.4123 301.6055 -56.9661 36.3520 30381.5850 -192.8193 -140.5939
TCL: Running FEP window  10: Lambda1 0.5499999999999996 Lambda2 0.4999999999999996 [dLambda -0.04999999999999999]
TCL: Setting parameter firsttimestep to 0
TCL: Setting parameter alchLambda to 0.5499999999999996
Info: NONBONDED TABLE R-SQUARED SPACING: 0.0625
Info: NONBONDED TABLE SIZE: 705 POINTS
TCL: Setting parameter alchLambda2 to 0.4999999999999996
Info: NONBONDED TABLE R-SQUARED SPACING: 0.0625
Info: NONBONDED TABLE SIZE: 705 POINTS
TCL: Running for 1500000 steps
ETITLE: TS BOND ANGLE DIHED IMPRP ELECT VDW BOUNDARY MISC KINETIC TOTAL TEMP POTENTIAL TOTALAVG TEMPAVG PRESSURE GPRESSURE VOLUME PRESSAVG GPRESSAVG
ENERGY: 0 4.8259 14.5186 4.3676 0.0000 -10657.2541 1424.4836 0.0000 0.0000 1793.6017 -7415.4568 304.6688 -9209.0586 -7415.4568 304.6688 -44.7874 34.4348 30381.5850 -44.7874 34.4348
ENERGY: 300000 6.5672 19.7697 8.9799 0.0000 -10595.1379 1468.1174 0.0000 0.0000 1792.7343 -7298.9693 304.5215 -9091.7036 -7393.3479 304.5696 873.3251 902.0145 30163.5396 109.9480 162.5710
ENERGY: 600000 4.0012 17.8078 5.0655 0.0000 -10626.5742 1406.1239 0.0000 0.0000 1749.5139 -7444.0618 297.1799 -9193.5758 -7417.1210 302.2598 -341.5147 -261.5264 30747.9006 -13.2408 47.0459
ENERGY: 900000 7.4947 10.2303 8.7908 0.0000 -10583.9000 1392.3008 0.0000 0.0000 1769.2181 -7395.8654 300.5269 -9165.0835 -7419.7421 301.3143 -347.3285 -381.5741 30508.7935 -230.4675 -183.1453
ENERGY: 1200000 2.9605 10.8801 3.8884 0.0000 -10731.0390 1458.9845 0.0000 0.0000 1779.5181 -7474.8074 302.2765 -9254.3255 -7433.3531 300.2376 11.3133 77.3143 30134.1148 -170.6064 -114.7251
ENERGY: 1500000 4.3394 12.1178 8.8705 0.0000 -10521.2920 1355.8169 0.0000 0.0000 1755.1688 -7384.9788 298.1405 -9140.1476 -7431.2024 299.3528 -486.9235 -384.2276 30528.5762 -144.1851 -82.0569
TCL: Running FEP window  11: Lambda1 0.4999999999999996 Lambda2 0.4499999999999996 [dLambda -0.04999999999999999]
TCL: Setting parameter firsttimestep to 0
TCL: Setting parameter alchLambda to 0.4999999999999996
Info: NONBONDED TABLE R-SQUARED SPACING: 0.0625
Info: NONBONDED TABLE SIZE: 705 POINTS
TCL: Setting parameter alchLambda2 to 0.4499999999999996
Info: NONBONDED TABLE R-SQUARED SPACING: 0.0625
Info: NONBONDED TABLE SIZE: 705 POINTS
TCL: Running for 1500000 steps
ETITLE: TS BOND ANGLE DIHED IMPRP ELECT VDW BOUNDARY MISC KINETIC TOTAL TEMP POTENTIAL TOTALAVG TEMPAVG PRESSURE GPRESSURE VOLUME PRESSAVG GPRESSAVG
ENERGY: 0 4.3394 12.1178 8.8705 0.0000 -10521.4841 1354.8953 0.0000 0.0000 1754.3077 -7386.9535 297.9942 -9141.2612 -7386.9535 297.9942 -480.2787 -403.7387 30528.5762 -480.2787 -403.7387
ENERGY: 300000 5.7085 12.5346 5.6036 0.0000 -10645.1401 1487.8329 0.0000 0.0000 1823.0857 -7310.3748 309.6771 -9133.4605 -7378.7046 304.0464 456.3322 594.8889 30411.2134 -19.4577 45.6892
ENERGY: 600000 8.3750 13.4607 4.9646 0.0000 -10571.5860 1347.0755 0.0000 0.0000 1768.9074 -7428.8028 300.4742 -9197.7102 -7409.8027 301.7166 -1079.3946 -986.8666 30899.1307 -259.8636 -180.2194
ENERGY: 900000 5.5705 13.4536 7.3751 0.0000 -10767.2542 1435.8467 0.0000 0.0000 1798.5466 -7506.4617 305.5088 -9305.0083 -7415.6237 302.0780 -113.4964 -164.5412 30334.9847 -291.3736 -231.3497
ENERGY: 1200000 5.6028 11.9174 3.6734 0.0000 -10629.6654 1388.1660 0.0000 0.0000 1719.1127 -7501.1932 292.0158 -9220.3058 -7410.3668 301.3653 -290.5301 -272.5334 30270.7392 -358.9101 -306.2792
ENERGY: 1500000 5.6479 11.2905 4.9512 0.0000 -10446.7468 1353.8441 0.0000 0.0000 1807.4696 -7263.5435 307.0245 -9071.0131 -7399.4310 302.2487 -224.1026 -188.9075 30585.3823 -298.5584 -244.7790
TCL: Running FEP window  12: Lambda1 0.4499999999999996 Lambda2 0.39999999999999963 [dLambda -0.04999999999999999]
TCL: Setting parameter firsttimestep to 0
TCL: Setting parameter alchLambda to 0.4499999999999996
Info: NONBONDED TABLE R-SQUARED SPACING: 0.0625
Info: NONBONDED TABLE SIZE: 705 POINTS
TCL: Setting parameter alchLambda2 to 0.39999999999999963
Info: NONBONDED TABLE R-SQUARED SPACING: 0.0625
Info: NONBONDED TABLE SIZE: 705 POINTS
TCL: Running for 1500000 steps
ETITLE: TS BOND ANGLE DIHED IMPRP ELECT VDW BOUNDARY MISC KINETIC TOTAL TEMP POTENTIAL TOTALAVG TEMPAVG PRESSURE GPRESSURE VOLUME PRESSAVG GPRESSAVG
ENERGY: 0 5.6479 11.2906 4.9512 0.0000 -10446.7470 1353.9151 0.0000 0.0000 1806.6193 -7264.3230 306.8801 -9070.9423 -7264.3230 306.8801 -278.7977 -198.7445 30585.3823 -278.7977 -198.7445
ENERGY: 300000 2.6231 19.8258 5.6434 0.0000 -10723.8380 1455.5014 0.0000 0.0000 1778.7625 -7461.4818 302.1482 -9240.2443 -7405.7171 304.9824 237.3649 364.8224 29661.4288 32.6740 112.6770
ENERGY: 600000 4.0121 14.0344 5.8514 0.0000 -10790.1421 1552.6519 0.0000 0.0000 1770.4569 -7443.1354 300.7374 -9213.5923 -7420.6375 302.6148 878.9070 901.4609 30191.6826 100.1563 184.0078
ENERGY: 900000 2.4985 14.7149 7.5294 0.0000 -10820.7673 1507.4175 0.0000 0.0000 1724.2513 -7564.3557 292.8887 -9288.6069 -7430.7252 300.2414 414.2697 498.2076 29882.6494 162.1551 246.9987
ENERGY: 1200000 5.8617 13.3334 9.0077 0.0000 -10696.5122 1451.6841 0.0000 0.0000 1777.3171 -7439.3081 301.9027 -9216.6253 -7433.5332 299.9195 28.5166 111.1403 30198.8261 200.3810 280.6859
ENERGY: 1500000 6.8231 13.0597 9.0625 0.0000 -10621.0215 1376.0876 0.0000 0.0000 1775.5881 -7440.4006 301.6090 -9215.9887 -7437.6567 299.6938 -908.1072 -770.2306 30940.0574 110.3826 190.4806
TCL: Running FEP window  13: Lambda1 0.39999999999999963 Lambda2 0.34999999999999964 [dLambda -0.04999999999999999]
TCL: Setting parameter firsttimestep to 0
TCL: Setting parameter alchLambda to 0.39999999999999963
Info: NONBONDED TABLE R-SQUARED SPACING: 0.0625
Info: NONBONDED TABLE SIZE: 705 POINTS
TCL: Setting parameter alchLambda2 to 0.34999999999999964
Info: NONBONDED TABLE R-SQUARED SPACING: 0.0625
Info: NONBONDED TABLE SIZE: 705 POINTS
TCL: Running for 1500000 steps
ETITLE: TS BOND ANGLE DIHED IMPRP ELECT VDW BOUNDARY MISC KINETIC TOTAL TEMP POTENTIAL TOTALAVG TEMPAVG PRESSURE GPRESSURE VOLUME PRESSAVG GPRESSAVG
ENERGY: 0 6.8231 13.0596 9.0625 0.0000 -10621.0212 1376.8702 0.0000 0.0000 1774.6912 -7440.5146 301.4566 -9215.2058 -7440.5146 301.4566 -852.0472 -774.9449 30940.0574 -852.0472 -774.9449
ENERGY: 300000 3.4169 14.8558 9.9682 0.0000 -10497.7611 1327.8123 0.0000 0.0000 1757.7054 -7384.0024 298.5713 -9141.7078 -7441.3420 297.1269 -636.5809 -550.2648 30369.1769 -259.9592 -165.0904
ENERGY: 600000 5.9080 11.0875 7.0035 0.0000 -10491.6794 1334.8578 0.0000 0.0000 1794.3824 -7338.4403 304.8015 -9132.8227 -7432.2889 300.4709 -700.1064 -612.3665 30371.6520 -201.2906 -113.9927
ENERGY: 900000 6.7272 17.5221 7.5101 0.0000 -10691.7162 1471.9081 0.0000 0.0000 1752.5280 -7435.5206 297.6919 -9188.0486 -7427.9448 300.9671 466.1763 536.1014 30076.2183 -213.1470 -132.6638
ENERGY: 1200000 3.3402 12.0512 8.1936 0.0000 -10667.0105 1432.1464 0.0000 0.0000 1776.4430 -7434.8361 301.7542 -9211.2791 -7418.9027 300.4703 -41.8941 18.7958 30455.1355 -242.8493 -164.8593
ENERGY: 1500000 4.9387 15.9236 10.5666 0.0000 -10635.3184 1381.7789 0.0000 0.0000 1757.2087 -7464.9019 298.4870 -9222.1106 -7420.9570 301.3581 -289.1429 -268.9279 29968.1735 -198.4249 -130.2823
TCL: Running FEP window  14: Lambda1 0.34999999999999964 Lambda2 0.29999999999999966 [dLambda -0.04999999999999999]
TCL: Setting parameter firsttimestep to 0
TCL: Setting parameter alchLambda to 0.34999999999999964
Info: NONBONDED TABLE R-SQUARED SPACING: 0.0625
Info: NONBONDED TABLE SIZE: 705 POINTS
TCL: Setting parameter alchLambda2 to 0.29999999999999966
Info: NONBONDED TABLE R-SQUARED SPACING: 0.0625
Info: NONBONDED TABLE SIZE: 705 POINTS
TCL: Running for 1500000 steps
ETITLE: TS BOND ANGLE DIHED IMPRP ELECT VDW BOUNDARY MISC KINETIC TOTAL TEMP POTENTIAL TOTALAVG TEMPAVG PRESSURE GPRESSURE VOLUME PRESSAVG GPRESSAVG
ENERGY: 0 4.9388 15.9236 10.5666 0.0000 -10635.3191 1382.1878 0.0000 0.0000 1756.2756 -7465.4268 298.3285 -9221.7023 -7465.4268 298.3285 -361.4215 -271.5500 29968.1735 -361.4215 -271.5500
ENERGY: 300000 1.9956 10.5350 9.4122 0.0000 -10653.8838 1416.2363 0.0000 0.0000 1732.8650 -7482.8396 294.3519 -9215.7047 -7440.2462 297.4550 12.9931 49.2412 30119.8802 -325.4930 -281.6289
ENERGY: 600000 5.9358 12.6761 5.4554 0.0000 -10572.4209 1340.8764 0.0000 0.0000 1780.2746 -7427.2026 302.4050 -9207.4772 -7460.2782 297.1996 -936.0914 -893.0233 30510.4197 -347.7162 -306.0108
ENERGY: 900000 8.4586 16.3767 12.9831 0.0000 -10620.1819 1373.8870 0.0000 0.0000 1779.6730 -7428.8035 302.3029 -9208.4765 -7449.5970 298.3937 -860.5320 -839.7386 30573.3780 -279.1815 -238.0063
ENERGY: 1200000 3.0971 10.8703 9.2029 0.0000 -10524.9021 1370.6989 0.0000 0.0000 1743.8926 -7387.1403 296.2250 -9131.0329 -7446.2069 298.6291 -324.4699 -246.7734 30482.7520 -215.8659 -170.7033
ENERGY: 1500000 5.0580 12.2723 8.0042 0.0000 -10760.1002 1463.9263 0.0000 0.0000 1759.4916 -7511.3479 298.8748 -9270.8395 -7456.0537 298.5957 -16.9102 59.5979 30189.1147 -186.9806 -140.7900
TCL: Running FEP window  15: Lambda1 0.29999999999999966 Lambda2 0.24999999999999967 [dLambda -0.04999999999999999]
TCL: Setting parameter firsttimestep to 0
TCL: Setting parameter alchLambda to 0.29999999999999966
Info: NONBONDED TABLE R-SQUARED SPACING: 0.0625
Info: NONBONDED TABLE SIZE: 705 POINTS
TCL: Setting parameter alchLambda2 to 0.24999999999999967
Info: NONBONDED TABLE R-SQUARED SPACING: 0.0625
Info: NONBONDED TABLE SIZE: 705 POINTS
TCL: Running for 1500000 steps
ETITLE: TS BOND ANGLE DIHED IMPRP ELECT VDW BOUNDARY MISC KINETIC TOTAL TEMP POTENTIAL TOTALAVG TEMPAVG PRESSURE GPRESSURE VOLUME PRESSAVG GPRESSAVG
ENERGY: 0 5.0580 12.2723 8.0041 0.0000 -10760.1020 1464.7102 0.0000 0.0000 1758.5962 -7511.4612 298.7227 -9270.0574 -7511.4612 298.7227 -45.4326 55.1561 30189.1147 -45.4326 55.1561
ENERGY: 300000 6.6430 12.8939 8.3117 0.0000 -10583.2196 1309.4690 0.0000 0.0000 1716.9017 -7529.0003 291.6402 -9245.9020 -7478.4487 298.0847 -1412.9152 -1442.6070 30740.2851 -581.5380 -514.2919
ENERGY: 600000 9.8057 19.8089 6.4154 0.0000 -10798.9734 1485.9285 0.0000 0.0000 1763.7106 -7513.3043 299.5914 -9277.0149 -7477.8959 298.5515 110.3203 187.5142 30131.4639 -390.3460 -332.6279
ENERGY: 900000 5.3907 16.8983 8.0808 0.0000 -10550.1351 1413.7428 0.0000 0.0000 1783.6509 -7322.3716 302.9785 -9106.0224 -7458.6723 299.3541 58.7068 138.5506 30463.6565 -292.6953 -226.5442
ENERGY: 1200000 3.8496 11.5821 8.6108 0.0000 -10527.6365 1309.4767 0.0000 0.0000 1829.3979 -7364.7194 310.7493 -9194.1173 -7447.2098 301.4121 -1044.4339 -1010.8991 30477.3720 -368.8447 -305.4038
ENERGY: 1500000 4.7449 11.4104 7.4213 0.0000 -10705.1567 1473.1432 0.0000 0.0000 1819.6839 -7388.7531 309.0993 -9208.4370 -7439.5245 301.3540 568.1216 552.6084 29853.5246 -260.2951 -203.3929
TCL: Running FEP window  16: Lambda1 0.24999999999999967 Lambda2 0.19999999999999968 [dLambda -0.04999999999999999]
TCL: Setting parameter firsttimestep to 0
TCL: Setting parameter alchLambda to 0.24999999999999967
Info: NONBONDED TABLE R-SQUARED SPACING: 0.0625
Info: NONBONDED TABLE SIZE: 705 POINTS
TCL: Setting parameter alchLambda2 to 0.19999999999999968
Info: NONBONDED TABLE R-SQUARED SPACING: 0.0625
Info: NONBONDED TABLE SIZE: 705 POINTS
TCL: Running for 1500000 steps
ETITLE: TS BOND ANGLE DIHED IMPRP ELECT VDW BOUNDARY MISC KINETIC TOTAL TEMP POTENTIAL TOTALAVG TEMPAVG PRESSURE GPRESSURE VOLUME PRESSAVG GPRESSAVG
ENERGY: 0 4.7449 11.4104 7.4213 0.0000 -10705.1575 1473.7488 0.0000 0.0000 1818.8054 -7389.0266 308.9500 -9207.8321 -7389.0266 308.9500 460.2065 549.3057 29853.5246 460.2065 549.3057
ENERGY: 300000 5.6702 15.3680 10.4615 0.0000 -10596.7851 1408.4118 0.0000 0.0000 1759.5505 -7397.3231 298.8848 -9156.8737 -7417.5777 300.5071 -408.0185 -361.0210 31031.2051 -204.3363 -134.3526
ENERGY: 600000 5.4423 12.1995 6.7936 0.0000 -10763.8011 1498.1561 0.0000 0.0000 1801.0906 -7440.1191 305.9409 -9241.2097 -7436.6268 300.9835 560.1169 674.7505 29787.8258 -125.8691 -50.2048
ENERGY: 900000 4.2015 14.9122 10.5848 0.0000 -10748.0197 1505.2812 0.0000 0.0000 1727.9450 -7485.0951 293.5161 -9213.0401 -7449.0826 300.9099 422.0133 562.1494 29888.4284 -136.3356 -72.7394
ENERGY: 1200000 4.3244 12.1910 6.8759 0.0000 -10624.6715 1390.9260 0.0000 0.0000 1844.1517 -7366.2024 313.2555 -9210.3541 -7438.9987 300.9681 -344.3378 -320.9455 30319.3171 -71.6707 -13.1202
ENERGY: 1500000 6.0173 13.8721 6.6713 0.0000 -10610.9653 1405.0199 0.0000 0.0000 1725.1653 -7454.2195 293.0439 -9179.3848 -7428.2747 300.9481 -249.5299 -162.5993 30327.8494 -94.6675 -31.1097
TCL: Running FEP window  17: Lambda1 0.19999999999999968 Lambda2 0.1499999999999997 [dLambda -0.04999999999999999]
TCL: Setting parameter firsttimestep to 0
TCL: Setting parameter alchLambda to 0.19999999999999968
Info: NONBONDED TABLE R-SQUARED SPACING: 0.0625
Info: NONBONDED TABLE SIZE: 705 POINTS
TCL: Setting parameter alchLambda2 to 0.1499999999999997
Info: NONBONDED TABLE R-SQUARED SPACING: 0.0625
Info: NONBONDED TABLE SIZE: 705 POINTS
TCL: Running for 1500000 steps
ETITLE: TS BOND ANGLE DIHED IMPRP ELECT VDW BOUNDARY MISC KINETIC TOTAL TEMP POTENTIAL TOTALAVG TEMPAVG PRESSURE GPRESSURE VOLUME PRESSAVG GPRESSAVG
ENERGY: 0 6.0173 13.8721 6.6713 0.0000 -10610.9645 1406.0116 0.0000 0.0000 1724.2842 -7454.1081 292.8943 -9178.3923 -7454.1081 292.8943 -243.9830 -161.0817 30327.8494 -243.9830 -161.0817
ENERGY: 300000 9.8153 15.0878 7.9235 0.0000 -10861.1377 1538.9702 0.0000 0.0000 1777.7605 -7511.5804 301.9780 -9289.3409 -7446.2745 299.7960 618.9201 686.8897 29714.8324 207.3837 261.9988
ENERGY: 600000 3.5768 14.7654 10.3773 0.0000 -10628.1871 1406.7738 0.0000 0.0000 1777.3667 -7415.3271 301.9111 -9192.6938 -7413.4439 303.5372 -141.1139 -47.7758 30005.6583 52.0374 112.1872
ENERGY: 900000 7.4313 19.3240 9.5628 0.0000 -10614.6577 1398.1578 0.0000 0.0000 1772.4387 -7407.7431 301.0740 -9180.1818 -7408.6985 303.1690 11.7463 132.9090 30146.3023 102.0626 176.3627
ENERGY: 1200000 4.0046 19.6972 9.4577 0.0000 -10617.1784 1371.9029 0.0000 0.0000 1779.4590 -7432.6570 302.2665 -9212.1160 -7414.5727 302.0009 -815.9035 -717.2078 30711.8491 -2.6160 70.9861
ENERGY: 1500000 3.1972 22.8143 9.1445 0.0000 -10765.4161 1454.2731 0.0000 0.0000 1781.9070 -7494.0801 302.6823 -9275.9871 -7422.6794 301.2930 -30.2039 31.1014 29880.4067 -46.8911 19.7338
TCL: Running FEP window  18: Lambda1 0.1499999999999997 Lambda2 0.09999999999999969 [dLambda -0.05 ]
TCL: Setting parameter firsttimestep to 0
TCL: Setting parameter alchLambda to 0.1499999999999997
Info: NONBONDED TABLE R-SQUARED SPACING: 0.0625
Info: NONBONDED TABLE SIZE: 705 POINTS
TCL: Setting parameter alchLambda2 to 0.09999999999999969
Info: NONBONDED TABLE R-SQUARED SPACING: 0.0625
Info: NONBONDED TABLE SIZE: 705 POINTS
TCL: Running for 1500000 steps
ETITLE: TS BOND ANGLE DIHED IMPRP ELECT VDW BOUNDARY MISC KINETIC TOTAL TEMP POTENTIAL TOTALAVG TEMPAVG PRESSURE GPRESSURE VOLUME PRESSAVG GPRESSAVG
ENERGY: 0 3.1972 22.8143 9.1445 0.0000 -10765.4179 1453.1232 0.0000 0.0000 1781.0688 -7496.0701 302.5399 -9277.1388 -7496.0701 302.5399 -66.3654 14.7847 29880.4067 -66.3654 14.7847
ENERGY: 300000 4.8601 12.4167 6.9678 0.0000 -10760.8811 1495.2304 0.0000 0.0000 1753.9127 -7487.4933 297.9271 -9241.4060 -7449.3312 302.3018 453.1197 561.9135 29805.5804 334.9542 402.9674
ENERGY: 600000 5.0255 17.0666 7.3565 0.0000 -10656.9041 1394.9759 0.0000 0.0000 1820.9081 -7411.5715 309.3072 -9232.4796 -7440.6918 302.2206 -854.3525 -766.0650 30833.0881 69.6196 120.5812
ENERGY: 900000 4.0322 11.8016 10.3808 0.0000 -10735.4425 1475.2015 0.0000 0.0000 1761.1383 -7472.8881 299.1545 -9234.0264 -7456.0200 300.3908 455.1175 496.7882 29820.7340 173.2913 217.4622
ENERGY: 1200000 2.4121 21.8997 8.1930 0.0000 -10695.5042 1469.2693 0.0000 0.0000 1768.9114 -7424.8186 300.4748 -9193.7300 -7452.2736 299.8918 158.9345 224.3126 30240.3332 82.2824 136.2855
ENERGY: 1500000 2.4405 14.3086 6.8652 0.0000 -10595.4339 1384.7473 0.0000 0.0000 1757.4706 -7429.6016 298.5315 -9187.0722 -7445.1904 300.6231 -460.2140 -395.1177 30194.9780 -2.8750 50.3689
TCL: Running FEP window  19: Lambda1 0.09999999999999969 Lambda2 0.049999999999999684 [dLambda -0.05 ]
TCL: Setting parameter firsttimestep to 0
TCL: Setting parameter alchLambda to 0.09999999999999969
Info: NONBONDED TABLE R-SQUARED SPACING: 0.0625
Info: NONBONDED TABLE SIZE: 705 POINTS
TCL: Setting parameter alchLambda2 to 0.049999999999999684
Info: NONBONDED TABLE R-SQUARED SPACING: 0.0625
Info: NONBONDED TABLE SIZE: 705 POINTS
TCL: Running for 1500000 steps
ETITLE: TS BOND ANGLE DIHED IMPRP ELECT VDW BOUNDARY MISC KINETIC TOTAL TEMP POTENTIAL TOTALAVG TEMPAVG PRESSURE GPRESSURE VOLUME PRESSAVG GPRESSAVG
ENERGY: 0 2.4405 14.3086 6.8652 0.0000 -10595.4320 1384.9225 0.0000 0.0000 1756.5424 -7430.3528 298.3738 -9186.8952 -7430.3528 298.3738 -487.6420 -398.3890 30194.9780 -487.6420 -398.3890
ENERGY: 300000 7.0453 19.4856 10.6338 0.0000 -10755.2785 1487.9449 0.0000 0.0000 1751.3114 -7478.8576 297.4852 -9230.1689 -7435.5265 297.1359 94.2984 145.3048 30307.4305 -81.1656 -9.9638
ENERGY: 600000 6.6635 16.6244 8.2032 0.0000 -10759.8666 1503.3298 0.0000 0.0000 1757.2473 -7467.7984 298.4935 -9225.0456 -7425.4616 299.6438 595.4736 647.6781 29965.7814 64.7129 128.7524
ENERGY: 900000 4.5176 17.4916 6.9883 0.0000 -10743.5399 1439.2685 0.0000 0.0000 1739.5735 -7535.7005 295.4914 -9275.2739 -7423.2479 300.4301 -172.1263 -86.8622 29999.8106 -131.8584 -69.9885
ENERGY: 1200000 8.2989 13.9776 9.9187 0.0000 -10632.1955 1436.4992 0.0000 0.0000 1769.4883 -7394.0129 300.5728 -9163.5012 -7421.0430 301.0949 -15.6910 -10.1361 30553.1405 -152.4712 -95.1271
ENERGY: 1500000 5.7429 18.9571 7.3984 0.0000 -10761.9685 1456.3184 0.0000 0.0000 1770.5760 -7502.9757 300.7576 -9273.5518 -7419.8997 301.5305 -121.6357 -37.5045 30005.2500 -72.8146 -16.5170
TCL: Running FEP window  20: Lambda1 0.049999999999999684 Lambda2 0.0    [dLambda -0.049999999999999684]
TCL: Setting parameter firsttimestep to 0
TCL: Setting parameter alchLambda to 0.049999999999999684
Info: NONBONDED TABLE R-SQUARED SPACING: 0.0625
Info: NONBONDED TABLE SIZE: 705 POINTS
TCL: Setting parameter alchLambda2 to 0.0
Info: NONBONDED TABLE R-SQUARED SPACING: 0.0625
Info: NONBONDED TABLE SIZE: 705 POINTS
TCL: Running for 1500000 steps
ETITLE: TS BOND ANGLE DIHED IMPRP ELECT VDW BOUNDARY MISC KINETIC TOTAL TEMP POTENTIAL TOTALAVG TEMPAVG PRESSURE GPRESSURE VOLUME PRESSAVG GPRESSAVG
ENERGY: 0 5.7429 18.9571 7.3984 0.0000 -10761.9696 1455.6703 0.0000 0.0000 1769.7363 -7504.4647 300.6150 -9274.2009 -7504.4647 300.6150 -132.5908 -43.1556 30005.2500 -132.5908 -43.1556
ENERGY: 300000 5.0644 19.1063 6.7357 0.0000 -10595.8429 1350.0621 0.0000 0.0000 1765.6390 -7449.2354 299.9190 -9214.8745 -7461.6960 301.2407 -564.8140 -453.8398 29694.2406 -349.6959 -275.0081
ENERGY: 600000 1.6048 24.2091 6.0904 0.0000 -10684.0915 1370.6063 0.0000 0.0000 1773.4331 -7508.1477 301.2429 -9281.5808 -7487.9683 298.5537 -644.1478 -564.0153 29711.3039 -96.1765 -34.1916
ENERGY: 900000 5.3770 10.4135 7.2309 0.0000 -10594.1428 1368.6364 0.0000 0.0000 1765.6389 -7436.8461 299.9190 -9202.4850 -7478.6753 298.7912 -609.2580 -557.6813 30188.3078 -195.5834 -132.4001
ENERGY: 1200000 5.0500 20.2066 7.2999 0.0000 -10586.3226 1379.9209 0.0000 0.0000 1791.9506 -7381.8947 304.3884 -9173.8453 -7459.1114 298.9224 -487.6379 -474.2597 30478.8913 -195.8451 -135.8852
ENERGY: 1500000 2.9776 12.1500 7.4312 0.0000 -10608.1971 1397.3445 0.0000 0.0000 1798.2045 -7390.0892 305.4507 -9188.2937 -7447.9577 299.3108 -541.8376 -497.3222 30557.7010 -254.3366 -194.4340
TCL: Exiting due to exit command.
