Info: SIMULATION PARAMETERS:
Info: TIMESTEP               2
Info: NUMBER OF STEPS        0
Info: STEPS PER CYCLE        10
Info: PERIODIC CELL BASIS 1  32.3189 0 0
Info: PERIODIC CELL BASIS 2  0 30.2592 0
Info: PERIODIC CELL BASIS 3  0 0 30.6302
Info: PERIODIC CELL CENTER   0 0 0
Info: WRAPPING WATERS AROUND PERIODIC BOUNDARIES ON OUTPUT.
Info: WRAPPING ALL CLUSTERS AROUND PERIODIC BOUNDARIES ON OUTPUT.
Info: FIRST LDB TIMESTEP     50
Info: LAST LDB TIMESTEP     -1
Info: HOM BACKGROUND SCALING 1
Info: PME BACKGROUND SCALING 1
Info: MIN ATOMS PER PATCH    40
Info: EMPTY PATCH LOAD       40 ATOMS
Info: VELOCITY FILE          mobley_9407874_equil.vel
Info: CENTER OF MASS MOVING INITIALLY? NO
Info: DIELECTRIC             1
Info: EXCLUDE                SCALED ONE-FOUR
Info: 1-4 ELECTROSTATICS SCALED BY 0.833333
Info: MODIFIED 1-4 VDW PARAMETERS WILL BE USED
Info: DCD FILENAME           mobley_9407874_prod.dcd
Info: DCD FREQUENCY          100000
Info: DCD FIRST STEP         100000
Info: DCD FILE WILL CONTAIN UNIT CELL DATA
Info: XST FILENAME           mobley_9407874_prod.xst
Info: XST FREQUENCY          100000
Info: NO VELOCITY DCD OUTPUT
Info: NO FORCE DCD OUTPUT
Info: OUTPUT FILENAME        mobley_9407874_prod
Info: BINARY OUTPUT FILES WILL BE USED
Info: RESTART FILENAME       mobley_9407874_prod.restart
Info: RESTART FREQUENCY      100000
Info: BINARY RESTART FILES WILL BE USED
Info: CUTOFF                 9
Info: PAIRLIST DISTANCE      11
Info: PAIRLIST SHRINK RATE   0.01
Info: PAIRLIST GROW RATE     0.01
Info: PAIRLIST TRIGGER       0.3
Info: PAIRLISTS PER CYCLE    2
Info: PAIRLISTS ENABLED
Info: MARGIN                 2
Info: HYDROGEN GROUP CUTOFF  2.5
Info: PATCH DIMENSION        15.5
Info: ENERGY OUTPUT STEPS    100000
Info: ENERGY EVALUATION STEPS    100000
Info: OUTPUT ENERGY PRECISION 4
Info: CROSSTERM ENERGY INCLUDED IN DIHEDRAL
Info: TIMING OUTPUT STEPS    1000000
Info: PRESSURE OUTPUT STEPS  100000
Info: ALCHEMICAL FEP ON
Info: FEP CURRENT LAMBDA VALUE     1
Info: FEP COMPARISON LAMBDA VALUE  0.95
Info: FEP INTRA-ALCHEMICAL NON-BONDED INTERACTIONS WILL BE RETAINED
Info: FEP INTRA-ALCHEMICAL BONDED INTERACTIONS WILL BE RETAINED
Info: FEP VDW SHIFTING COEFFICIENT 5
Info: FEP ELEC. ACTIVE FOR ANNIHILATED PARTICLES BETWEEN LAMBDA = 0 AND LAMBDA = 0.5
Info: FEP ELEC. ACTIVE FOR EXNIHILATED PARTICLES BETWEEN LAMBDA = 0.5 AND LAMBDA = 1
Info: FEP VDW ACTIVE FOR ANNIHILATED PARTICLES BETWEEN LAMBDA = 0 AND LAMBDA = 1
Info: FEP VDW ACTIVE FOR EXNIHILATED PARTICLES BETWEEN LAMBDA = 0 AND LAMBDA = 1
Info: FEP BOND ACTIVE FOR ANNIHILATED PARTICLES BETWEEN LAMBDA = 1 AND LAMBDA = 1
Info: FEP BOND ACTIVE FOR EXNIHILATED PARTICLES BETWEEN LAMBDA = 0 AND LAMBDA = 0
Info: LANGEVIN DYNAMICS ACTIVE
Info: LANGEVIN TEMPERATURE   300
Info: LANGEVIN USING BBK INTEGRATOR
Info: LANGEVIN DAMPING COEFFICIENT IS 1 INVERSE PS
Info: LANGEVIN DYNAMICS APPLIED TO HYDROGENS
Info: LANGEVIN PISTON PRESSURE CONTROL ACTIVE
Info:        TARGET PRESSURE IS 1.01325 BAR
Info:     OSCILLATION PERIOD IS 50 FS
Info:             DECAY TIME IS 25 FS
Info:     PISTON TEMPERATURE IS 300 K
Info:       PRESSURE CONTROL IS GROUP-BASED
Info:    INITIAL STRAIN RATE IS 8.20038e-05 8.20038e-05 8.20038e-05
Info:       CELL FLUCTUATION IS ISOTROPIC
Info: PARTICLE MESH EWALD (PME) ACTIVE
Info: PME TOLERANCE               1e-06
Info: PME EWALD COEFFICIENT       0.348832
Info: PME INTERPOLATION ORDER     4
Info: PME GRID DIMENSIONS         36 32 32
Info: PME MAXIMUM GRID SPACING    1
Info: PME CALCULATION WILL BE PERFORMED ON GPU
Info: FULL ELECTROSTATIC EVALUATION FREQUENCY      2
Info: USING VERLET I (r-RESPA) MTS SCHEME.
Info: C1 SPLITTING OF LONG RANGE ELECTROSTATICS
Info: PLACING ATOMS IN PATCHES BY HYDROGEN GROUPS
Info: RIGID BONDS TO HYDROGEN : ALL
Info:         ERROR TOLERANCE : 1e-08
Info:          MAX ITERATIONS : 100
Info: RIGID WATER USING SETTLE ALGORITHM
Info: RANDOM NUMBER SEED     1744023467
Info: USE HYDROGEN BONDS?    NO
Info: Using AMBER format force field!
Info: AMBER PARM FILE        mobley_9407874.prmtop
Info: COORDINATE PDB         mobley_9407874.pdb
Info: Exclusions will be read from PARM file!
Info: SCNB (VDW SCALING)     2
Info: USING ARITHMETIC MEAN TO COMBINE L-J SIGMA PARAMETERS
Info: BINARY COORDINATES     mobley_9407874_equil.coor
Info: SUMMARY OF PARAMETERS:
Info: 6 BONDS
Info: 7 ANGLES
Info:   7 HARMONIC
Info:   0 COSINE-BASED
Info: 11 DIHEDRAL
Info: 0 IMPROPER
Info: 0 CROSSTERM
Info: 0 VDW
Info: 21 VDW_PAIRS
Info: 0 NBTHOLE_PAIRS
Info: To read alchdata from file: mobley_9407874.pdb
Info: To read alchflag data from column: 5
Info: STRUCTURE SUMMARY:
Info: 2917 ATOMS
Info: 2916 BONDS
Info: 45 ANGLES
Info: 74 DIHEDRALS
Info: 0 IMPROPERS
Info: 0 CROSSTERMS
Info: 3018 EXCLUSIONS
Info: 2908 RIGID BONDS
Info: ALCH: 0 ATOMS TO DISAPPEAR IN FINAL STATE
Info: ALCH: 25 ATOMS TO APPEAR IN FINAL STATE
Info: 5843 DEGREES OF FREEDOM
Info: 973 HYDROGEN GROUPS
Info: 4 ATOMS IN LARGEST HYDROGEN GROUP
Info: 973 MIGRATION GROUPS
Info: 4 ATOMS IN LARGEST MIGRATION GROUP
Info: TOTAL MASS = 17495.6 amu
Info: TOTAL CHARGE = 1.49012e-08 e
Info: MASS DENSITY = 0.969894 g/cm^3
Info: ATOM DENSITY = 0.0973804 atoms/A^3
Info: ADDED 0 IMPLICIT EXCLUSIONS
Info: NONBONDED TABLE R-SQUARED SPACING: 0.0625
Info: NONBONDED TABLE SIZE: 705 POINTS
Info: REMOVING COM VELOCITY -0.0715718 0.162584 0.148031
Info: Use 3D box decompostion in PME FFT.
Info: Updated CUDA force table with 4096 elements.
Info: Updated CUDA LJ table with 6 x 6 elements.
Info: Found 28 unique exclusion lists needing 96 bytes
TCL: Running for 1500000 steps
ETITLE: TS BOND ANGLE DIHED IMPRP ELECT VDW BOUNDARY MISC KINETIC TOTAL TEMP POTENTIAL TOTALAVG TEMPAVG PRESSURE GPRESSURE VOLUME PRESSAVG GPRESSAVG
ENERGY: 0 4.9091 18.3429 7.6198 0.0000 -10707.2457 1548.8542 0.0000 0.0000 1747.7280 -7379.7918 301.0429 -9127.5198 -7379.7918 301.0429 1028.2454 1109.9068 29954.6792 1028.2454 1109.9068
ENERGY: 300000 2.6752 4.8313 6.1601 0.0000 -10738.1674 1479.8246 0.0000 0.0000 1714.8291 -7529.8470 295.3761 -9244.6761 -7379.2828 301.4900 248.2764 294.9463 29683.2655 252.0000 325.7578
ENERGY: 600000 2.5058 11.2135 6.8236 0.0000 -10420.0677 1319.6864 0.0000 0.0000 1750.6699 -7329.1685 301.5496 -9079.8384 -7361.6432 301.3918 -588.9033 -559.0889 30173.8991 17.0964 71.1383
ENERGY: 900000 1.0539 11.0510 7.3919 0.0000 -10512.9989 1410.7076 0.0000 0.0000 1773.3420 -7309.4524 305.4548 -9082.7944 -7357.5046 300.3010 -32.3129 31.6242 30187.5627 90.8219 143.3339
ENERGY: 1200000 2.6408 7.4782 6.0311 0.0000 -10459.6641 1394.5270 0.0000 0.0000 1703.2850 -7345.7019 293.3876 -9048.9870 -7360.7092 299.5821 -82.9103 29.8178 30236.1048 160.0309 220.2022
ENERGY: 1500000 2.8739 13.5976 5.7285 0.0000 -10583.3045 1501.2132 0.0000 0.0000 1702.9276 -7356.9637 293.3261 -9059.8913 -7361.2575 299.4396 938.4386 992.6201 29597.5108 152.3462 213.5880
TCL: Running FEP window   2: Lambda1 0.95   Lambda2 0.8999999999999999 [dLambda -0.050000000000000044]
TCL: Setting parameter firsttimestep to 0
TCL: Setting parameter alchLambda to 0.95
Info: NONBONDED TABLE R-SQUARED SPACING: 0.0625
Info: NONBONDED TABLE SIZE: 705 POINTS
TCL: Setting parameter alchLambda2 to 0.8999999999999999
Info: NONBONDED TABLE R-SQUARED SPACING: 0.0625
Info: NONBONDED TABLE SIZE: 705 POINTS
TCL: Running for 1500000 steps
ETITLE: TS BOND ANGLE DIHED IMPRP ELECT VDW BOUNDARY MISC KINETIC TOTAL TEMP POTENTIAL TOTALAVG TEMPAVG PRESSURE GPRESSURE VOLUME PRESSAVG GPRESSAVG
ENERGY: 0 2.8739 13.5976 5.7285 0.0000 -10581.6872 1500.9055 0.0000 0.0000 1702.0609 -7356.5208 293.1768 -9058.5817 -7356.5208 293.1768 902.3032 973.9618 29597.5108 902.3032 973.9618
ENERGY: 300000 3.5065 13.0111 8.4146 0.0000 -10407.3516 1265.7538 0.0000 0.0000 1719.7624 -7396.9033 296.2258 -9116.6657 -7360.7311 297.5317 -1356.8811 -1241.0155 30042.9159 -304.0702 -222.4530
ENERGY: 600000 0.5716 11.4780 6.8162 0.0000 -10736.1407 1510.6351 0.0000 0.0000 1727.1034 -7479.5364 297.4903 -9206.6398 -7418.7233 295.8126 977.4791 1026.9078 29257.0833 241.7870 312.2468
ENERGY: 900000 0.6959 8.0121 7.5850 0.0000 -10525.9676 1390.8367 0.0000 0.0000 1763.3898 -7355.4482 303.7406 -9118.8379 -7407.0090 298.7072 -134.6925 -127.5528 29956.3056 134.3670 194.6864
ENERGY: 1200000 4.6271 11.1039 6.1739 0.0000 -10534.2444 1311.2829 0.0000 0.0000 1727.6171 -7473.4395 297.5788 -9201.0566 -7401.1569 300.0250 -859.5561 -854.2402 30313.4310 15.6358 73.5566
ENERGY: 1500000 2.4452 10.9597 5.4624 0.0000 -10429.8455 1289.6431 0.0000 0.0000 1697.5119 -7423.8233 292.3932 -9121.3351 -7400.9832 299.2625 -1065.3362 -1008.5986 30220.7910 -79.1937 -21.2954
TCL: Running FEP window   3: Lambda1 0.8999999999999999 Lambda2 0.8499999999999999 [dLambda -0.050000000000000044]
TCL: Setting parameter firsttimestep to 0
TCL: Setting parameter alchLambda to 0.8999999999999999
Info: NONBONDED TABLE R-SQUARED SPACING: 0.0625
Info: NONBONDED TABLE SIZE: 705 POINTS
TCL: Setting parameter alchLambda2 to 0.8499999999999999
Info: NONBONDED TABLE R-SQUARED SPACING: 0.0625
Info: NONBONDED TABLE SIZE: 705 POINTS
TCL: Running for 1500000 steps
ETITLE: TS BOND ANGLE DIHED IMPRP ELECT VDW BOUNDARY MISC KINETIC TOTAL TEMP POTENTIAL TOTALAVG TEMPAVG PRESSURE GPRESSURE VOLUME PRESSAVG GPRESSAVG
ENERGY: 0 2.4451 10.9597 5.4624 0.0000 -10428.4718 1289.5211 0.0000 0.0000 1696.6538 -7423.4297 292.2454 -9120.0835 -7423.4297 292.2454 -1117.0018 -1024.7161 30220.7910 -1117.0018 -1024.7161
ENERGY: 300000 1.8825 9.1409 7.1503 0.0000 -10511.6335 1362.5297 0.0000 0.0000 1782.7823 -7348.1477 307.0809 -9130.9301 -7365.5223 298.7890 -269.3363 -217.6887 29867.9522 -487.2944 -426.4233
ENERGY: 600000 3.3378 19.1722 5.8893 0.0000 -10452.4673 1323.5989 0.0000 0.0000 1782.5970 -7317.8721 307.0490 -9100.4691 -7355.7246 299.6433 -806.1356 -815.0622 30181.8740 -432.9901 -368.3521
ENERGY: 900000 2.8002 11.1099 6.1149 0.0000 -10463.7478 1337.6520 0.0000 0.0000 1844.1047 -7261.9662 317.6436 -9106.0709 -7342.1118 301.0417 -632.6646 -520.0583 30169.3296 -434.2369 -360.2770
ENERGY: 1200000 2.4331 10.1265 6.6745 0.0000 -10596.2173 1429.9630 0.0000 0.0000 1731.1673 -7415.8529 298.1903 -9147.0202 -7358.5441 299.8962 63.7527 131.0648 29695.4768 -341.5989 -269.1782
ENERGY: 1500000 1.8738 17.7108 8.0893 0.0000 -10364.9244 1332.6072 0.0000 0.0000 1715.8104 -7288.8329 295.5451 -9004.6433 -7357.6474 299.4378 -406.1807 -437.2759 30478.9807 -346.6728 -282.7632
TCL: Running FEP window   4: Lambda1 0.8499999999999999 Lambda2 0.7999999999999998 [dLambda -0.050000000000000044]
TCL: Setting parameter firsttimestep to 0
TCL: Setting parameter alchLambda to 0.8499999999999999
Info: NONBONDED TABLE R-SQUARED SPACING: 0.0625
Info: NONBONDED TABLE SIZE: 705 POINTS
TCL: Setting parameter alchLambda2 to 0.7999999999999998
Info: NONBONDED TABLE R-SQUARED SPACING: 0.0625
Info: NONBONDED TABLE SIZE: 705 POINTS
TCL: Running for 1500000 steps
ETITLE: TS BOND ANGLE DIHED IMPRP ELECT VDW BOUNDARY MISC KINETIC TOTAL TEMP POTENTIAL TOTALAVG TEMPAVG PRESSURE GPRESSURE VOLUME PRESSAVG GPRESSAVG
ENERGY: 0 1.8738 17.7108 8.0893 0.0000 -10363.2501 1331.4153 0.0000 0.0000 1714.9648 -7289.1962 295.3995 -9004.1610 -7289.1962 295.3995 -550.6961 -465.9963 30478.9807 -550.6961 -465.9963
ENERGY: 300000 2.3142 19.8233 8.9853 0.0000 -10584.9345 1388.3513 0.0000 0.0000 1701.1106 -7464.3498 293.0131 -9165.4605 -7376.8432 299.5353 -321.3493 -284.1302 29801.9053 -601.1795 -518.0273
ENERGY: 600000 2.4284 12.2854 6.3315 0.0000 -10465.8648 1323.3139 0.0000 0.0000 1775.0740 -7346.4317 305.7532 -9121.5057 -7379.8099 299.6936 -856.8216 -743.2416 30309.2740 -402.3228 -321.7908
ENERGY: 900000 1.9181 12.3872 6.2016 0.0000 -10488.2231 1320.2263 0.0000 0.0000 1694.4456 -7453.0443 291.8651 -9147.4899 -7384.1032 298.3944 -1000.3972 -964.1577 30339.0534 -447.9307 -370.1598
ENERGY: 1200000 3.1409 17.9250 5.8511 0.0000 -10472.7621 1353.5465 0.0000 0.0000 1719.4716 -7372.8271 296.1758 -9092.2986 -7377.6887 299.0738 -632.8020 -594.4788 30512.9122 -374.3314 -299.2481
ENERGY: 1500000 5.9436 12.0462 6.3913 0.0000 -10376.5985 1315.3882 0.0000 0.0000 1740.3755 -7296.4537 299.7764 -9036.8293 -7363.7252 299.4132 -703.2216 -632.3504 30363.0149 -348.7989 -277.0765
TCL: Running FEP window   5: Lambda1 0.7999999999999998 Lambda2 0.7499999999999998 [dLambda -0.050000000000000044]
TCL: Setting parameter firsttimestep to 0
TCL: Setting parameter alchLambda to 0.7999999999999998
Info: NONBONDED TABLE R-SQUARED SPACING: 0.0625
Info: NONBONDED TABLE SIZE: 705 POINTS
TCL: Setting parameter alchLambda2 to 0.7499999999999998
Info: NONBONDED TABLE R-SQUARED SPACING: 0.0625
Info: NONBONDED TABLE SIZE: 705 POINTS
TCL: Running for 1500000 steps
ETITLE: TS BOND ANGLE DIHED IMPRP ELECT VDW BOUNDARY MISC KINETIC TOTAL TEMP POTENTIAL TOTALAVG TEMPAVG PRESSURE GPRESSURE VOLUME PRESSAVG GPRESSAVG
ENERGY: 0 5.9436 12.0462 6.3913 0.0000 -10375.8259 1315.1537 0.0000 0.0000 1739.5424 -7296.7487 299.6329 -9036.2911 -7296.7487 299.6329 -713.6158 -647.8526 30363.0149 -713.6158 -647.8526
ENERGY: 300000 1.8070 7.8321 7.4529 0.0000 -10504.7493 1413.2549 0.0000 0.0000 1724.8642 -7349.5383 297.1046 -9074.4025 -7350.8090 297.9984 203.4844 296.4282 29819.9837 -69.9538 -7.1838
ENERGY: 600000 2.3467 10.1981 6.5573 0.0000 -10613.3295 1448.1279 0.0000 0.0000 1710.6053 -7435.4943 294.6485 -9146.0995 -7389.8262 296.6117 41.7807 200.6740 29815.5350 7.4091 72.7800
ENERGY: 900000 1.8337 14.4661 5.6871 0.0000 -10467.3139 1365.9556 0.0000 0.0000 1826.0941 -7253.2772 314.5413 -9079.3713 -7365.1143 299.8718 -366.7967 -301.3305 30154.9301 -68.9806 -9.4139
ENERGY: 1200000 3.6429 11.0406 6.8307 0.0000 -10547.2671 1409.9736 0.0000 0.0000 1729.3872 -7386.3921 297.8837 -9115.7793 -7375.0537 299.1007 -57.1330 8.2056 29752.3896 40.7168 103.6029
ENERGY: 1500000 1.5384 7.0325 6.3328 0.0000 -10644.9045 1565.8276 0.0000 0.0000 1706.0184 -7358.1548 293.8585 -9064.1733 -7375.8592 298.9372 997.5311 1096.2166 30347.4025 44.9751 111.9776
TCL: Running FEP window   6: Lambda1 0.7499999999999998 Lambda2 0.6999999999999997 [dLambda -0.050000000000000044]
TCL: Setting parameter firsttimestep to 0
TCL: Setting parameter alchLambda to 0.7499999999999998
Info: NONBONDED TABLE R-SQUARED SPACING: 0.0625
Info: NONBONDED TABLE SIZE: 705 POINTS
TCL: Setting parameter alchLambda2 to 0.6999999999999997
Info: NONBONDED TABLE R-SQUARED SPACING: 0.0625
Info: NONBONDED TABLE SIZE: 705 POINTS
TCL: Running for 1500000 steps
ETITLE: TS BOND ANGLE DIHED IMPRP ELECT VDW BOUNDARY MISC KINETIC TOTAL TEMP POTENTIAL TOTALAVG TEMPAVG PRESSURE GPRESSURE VOLUME PRESSAVG GPRESSAVG
ENERGY: 0 1.5384 7.0325 6.3328 0.0000 -10643.3475 1564.9628 0.0000 0.0000 1705.1978 -7358.2833 293.7171 -9063.4811 -7358.2833 293.7171 1007.8496 1076.5724 30347.4025 1007.8496 1076.5724
ENERGY: 300000 1.7373 15.6228 5.5094 0.0000 -10451.3946 1332.7953 0.0000 0.0000 1754.1138 -7341.6160 302.1428 -9095.7298 -7339.5646 298.8600 -486.7876 -461.0675 30046.0435 159.0290 221.5043
ENERGY: 600000 5.6177 7.5728 6.8572 0.0000 -10559.9884 1420.3456 0.0000 0.0000 1721.4496 -7398.1455 296.5165 -9119.5952 -7345.2369 299.7528 206.2723 291.8996 29616.6456 175.3128 239.1388
ENERGY: 900000 3.0691 14.3163 5.2837 0.0000 -10580.1187 1457.0375 0.0000 0.0000 1760.4797 -7339.9324 303.2393 -9100.4121 -7332.5469 300.4656 472.8141 549.4713 29783.8238 216.6468 282.1435
ENERGY: 1200000 2.4380 15.6328 7.0534 0.0000 -10560.9505 1393.5424 0.0000 0.0000 1753.1821 -7389.1018 301.9823 -9142.2840 -7338.1321 300.1178 -168.4353 -127.6460 29895.1074 132.1622 193.2755
ENERGY: 1500000 1.2698 10.2076 6.3434 0.0000 -10259.4208 1217.9836 0.0000 0.0000 1737.2907 -7286.3256 299.2451 -9023.6163 -7338.7431 300.3273 -1530.5795 -1442.6798 30576.4026 87.0389 155.1019
TCL: Running FEP window   7: Lambda1 0.6999999999999997 Lambda2 0.6499999999999997 [dLambda -0.050000000000000044]
TCL: Setting parameter firsttimestep to 0
TCL: Setting parameter alchLambda to 0.6999999999999997
Info: NONBONDED TABLE R-SQUARED SPACING: 0.0625
Info: NONBONDED TABLE SIZE: 705 POINTS
TCL: Setting parameter alchLambda2 to 0.6499999999999997
Info: NONBONDED TABLE R-SQUARED SPACING: 0.0625
Info: NONBONDED TABLE SIZE: 705 POINTS
TCL: Running for 1500000 steps
ETITLE: TS BOND ANGLE DIHED IMPRP ELECT VDW BOUNDARY MISC KINETIC TOTAL TEMP POTENTIAL TOTALAVG TEMPAVG PRESSURE GPRESSURE VOLUME PRESSAVG GPRESSAVG
ENERGY: 0 1.2698 10.2076 6.3434 0.0000 -10258.8155 1218.2754 0.0000 0.0000 1736.4388 -7286.2805 299.0983 -9022.7193 -7286.2805 299.0983 -1533.3639 -1450.6609 30576.4026 -1533.3639 -1450.6609
ENERGY: 300000 4.0058 8.6026 5.7976 0.0000 -10504.7252 1407.1560 0.0000 0.0000 1699.9363 -7379.2268 292.8108 -9079.1632 -7329.2269 298.2143 -165.0408 -88.7815 30107.2345 -776.0094 -700.0649
ENERGY: 600000 3.6028 13.5719 8.2401 0.0000 -10435.4922 1384.0114 0.0000 0.0000 1682.8487 -7343.2172 289.8675 -9026.0660 -7349.6118 297.3915 -78.1226 28.5287 29889.2640 -540.9675 -468.4828
ENERGY: 900000 4.0686 13.6495 6.6199 0.0000 -10401.2108 1306.4122 0.0000 0.0000 1742.6253 -7327.8354 300.1639 -9070.4607 -7343.7847 297.5063 -1009.6534 -948.3397 30326.3925 -454.3273 -389.3662
ENERGY: 1200000 2.5371 12.0198 5.8523 0.0000 -10563.9799 1459.4635 0.0000 0.0000 1711.9349 -7372.1722 294.8776 -9084.1072 -7347.5519 297.8946 705.3350 760.1614 29318.1189 -262.0285 -198.7062
ENERGY: 1500000 2.0846 10.9561 7.6758 0.0000 -10597.6899 1409.6392 0.0000 0.0000 1723.0855 -7444.2487 296.7982 -9167.3342 -7352.1906 298.4488 -79.1567 -28.3562 29699.2692 -252.1707 -192.9959
TCL: Running FEP window   8: Lambda1 0.6499999999999997 Lambda2 0.5999999999999996 [dLambda -0.050000000000000044]
TCL: Setting parameter firsttimestep to 0
TCL: Setting parameter alchLambda to 0.6499999999999997
Info: NONBONDED TABLE R-SQUARED SPACING: 0.0625
Info: NONBONDED TABLE SIZE: 705 POINTS
TCL: Setting parameter alchLambda2 to 0.5999999999999996
Info: NONBONDED TABLE R-SQUARED SPACING: 0.0625
Info: NONBONDED TABLE SIZE: 705 POINTS
TCL: Running for 1500000 steps
ETITLE: TS BOND ANGLE DIHED IMPRP ELECT VDW BOUNDARY MISC KINETIC TOTAL TEMP POTENTIAL TOTALAVG TEMPAVG PRESSURE GPRESSURE VOLUME PRESSAVG GPRESSAVG
ENERGY: 0 2.0846 10.9561 7.6758 0.0000 -10597.1417 1408.4734 0.0000 0.0000 1722.2260 -7445.7257 296.6502 -9167.9517 -7445.7257 296.6502 -123.4791 -56.7828 29699.2692 -123.4791 -56.7828
ENERGY: 300000 2.0464 9.8491 6.0693 0.0000 -10493.2964 1429.3490 0.0000 0.0000 1735.7263 -7310.2562 298.9756 -9045.9825 -7374.2572 300.4490 205.7765 142.3589 30174.6468 -159.9595 -148.3952
ENERGY: 600000 4.2295 8.7509 6.6320 0.0000 -10562.6464 1388.6831 0.0000 0.0000 1742.0040 -7412.3470 300.0569 -9154.3510 -7357.7487 300.3211 -304.4051 -286.6803 29944.3829 -183.3862 -151.0598
ENERGY: 900000 2.0611 7.4639 5.6993 0.0000 -10607.5406 1471.2010 0.0000 0.0000 1795.3841 -7325.7312 309.2515 -9121.1154 -7347.5913 299.0133 668.7581 718.5280 29330.0352 52.0594 85.3883
ENERGY: 1200000 1.6424 13.4881 5.5762 0.0000 -10657.9855 1502.0227 0.0000 0.0000 1709.0606 -7426.1955 294.3825 -9135.2561 -7355.0598 299.1393 839.1940 864.7953 29725.0788 79.1739 112.6225
ENERGY: 1500000 1.1774 8.0799 5.9673 0.0000 -10518.8628 1440.6734 0.0000 0.0000 1739.5906 -7323.3743 299.6412 -9062.9649 -7350.1049 299.5617 179.8959 255.1949 30392.4685 39.1051 73.5339
TCL: Running FEP window   9: Lambda1 0.5999999999999996 Lambda2 0.5499999999999996 [dLambda -0.050000000000000044]
TCL: Setting parameter firsttimestep to 0
TCL: Setting parameter alchLambda to 0.5999999999999996
Info: NONBONDED TABLE R-SQUARED SPACING: 0.0625
Info: NONBONDED TABLE SIZE: 705 POINTS
TCL: Setting parameter alchLambda2 to 0.5499999999999996
Info: NONBONDED TABLE R-SQUARED SPACING: 0.0625
Info: NONBONDED TABLE SIZE: 705 POINTS
TCL: Running for 1500000 steps
ETITLE: TS BOND ANGLE DIHED IMPRP ELECT VDW BOUNDARY MISC KINETIC TOTAL TEMP POTENTIAL TOTALAVG TEMPAVG PRESSURE GPRESSURE VOLUME PRESSAVG GPRESSAVG
ENERGY: 0 1.1774 8.0799 5.9673 0.0000 -10518.7604 1440.9740 0.0000 0.0000 1738.6755 -7323.8864 299.4836 -9062.5619 -7323.8864 299.4836 155.4020 244.7068 30392.4685 155.4020 244.7068
ENERGY: 300000 3.1160 5.6973 5.3793 0.0000 -10500.3851 1381.7861 0.0000 0.0000 1767.3663 -7337.0401 304.4255 -9104.4065 -7312.9297 305.9067 -350.6818 -298.9634 30196.3726 -115.0823 -46.8113
ENERGY: 600000 4.8527 11.6351 6.0152 0.0000 -10400.9889 1375.7891 0.0000 0.0000 1751.7500 -7250.9467 301.7356 -9002.6967 -7322.6954 304.9749 -236.7296 -152.4703 29976.7917 2.0345 67.8036
ENERGY: 900000 4.4399 11.4328 8.8397 0.0000 -10518.6131 1384.2569 0.0000 0.0000 1721.2347 -7388.4091 296.4794 -9109.6438 -7340.9108 303.0464 -505.3527 -440.5338 30245.7897 -152.9966 -91.6781
ENERGY: 1200000 1.2755 13.1754 5.4896 0.0000 -10606.1191 1434.1122 0.0000 0.0000 1792.2440 -7359.8223 308.7107 -9152.0664 -7342.2255 303.8608 -243.1713 -76.0064 30029.0684 -203.7699 -129.4996
ENERGY: 1500000 2.0280 12.1687 8.2132 0.0000 -10486.3250 1361.7935 0.0000 0.0000 1780.0648 -7322.0569 306.6128 -9102.1217 -7347.4963 302.9859 -460.5474 -415.0792 29967.3354 -229.6225 -163.2477
TCL: Running FEP window  10: Lambda1 0.5499999999999996 Lambda2 0.4999999999999996 [dLambda -0.04999999999999999]
TCL: Setting parameter firsttimestep to 0
TCL: Setting parameter alchLambda to 0.5499999999999996
Info: NONBONDED TABLE R-SQUARED SPACING: 0.0625
Info: NONBONDED TABLE SIZE: 705 POINTS
TCL: Setting parameter alchLambda2 to 0.4999999999999996
Info: NONBONDED TABLE R-SQUARED SPACING: 0.0625
Info: NONBONDED TABLE SIZE: 705 POINTS
TCL: Running for 1500000 steps
ETITLE: TS BOND ANGLE DIHED IMPRP ELECT VDW BOUNDARY MISC KINETIC TOTAL TEMP POTENTIAL TOTALAVG TEMPAVG PRESSURE GPRESSURE VOLUME PRESSAVG GPRESSAVG
ENERGY: 0 2.0280 12.1687 8.2132 0.0000 -10485.5082 1361.8793 0.0000 0.0000 1779.1884 -7322.0307 306.4619 -9101.2191 -7322.0307 306.4619 -495.9589 -419.8114 29967.3354 -495.9589 -419.8114
ENERGY: 300000 3.4472 8.1317 8.5452 0.0000 -10394.8718 1371.9890 0.0000 0.0000 1772.9817 -7229.7771 305.3928 -9002.7588 -7298.0529 300.8901 -451.9189 -386.8101 30659.7019 -261.1108 -188.7462
ENERGY: 600000 2.8375 12.6722 6.0054 0.0000 -10478.2113 1325.9947 0.0000 0.0000 1734.9330 -7395.7686 298.8389 -9130.7016 -7326.8042 301.4358 -539.2093 -564.7437 29723.5566 -262.0754 -210.5831
ENERGY: 900000 1.4265 14.6418 7.6681 0.0000 -10401.3284 1368.3406 0.0000 0.0000 1712.0856 -7297.1658 294.9035 -9009.2514 -7339.5456 301.4999 -264.8790 -140.8062 30207.4492 -165.6113 -99.6894
ENERGY: 1200000 1.9635 11.9536 6.1734 0.0000 -10584.8371 1406.5629 0.0000 0.0000 1820.2597 -7337.9241 313.5363 -9158.1838 -7341.8750 301.8788 -180.9170 -132.5887 29938.6220 -268.4670 -201.9768
ENERGY: 1500000 2.1190 10.1760 6.7053 0.0000 -10652.8237 1512.3387 0.0000 0.0000 1724.8349 -7396.6498 297.0996 -9121.4847 -7352.7809 301.5518 962.9330 1105.5584 29505.6559 -162.9070 -92.3730
TCL: Running FEP window  11: Lambda1 0.4999999999999996 Lambda2 0.4499999999999996 [dLambda -0.04999999999999999]
TCL: Setting parameter firsttimestep to 0
TCL: Setting parameter alchLambda to 0.4999999999999996
Info: NONBONDED TABLE R-SQUARED SPACING: 0.0625
Info: NONBONDED TABLE SIZE: 705 POINTS
TCL: Setting parameter alchLambda2 to 0.4499999999999996
Info: NONBONDED TABLE R-SQUARED SPACING: 0.0625
Info: NONBONDED TABLE SIZE: 705 POINTS
TCL: Running for 1500000 steps
ETITLE: TS BOND ANGLE DIHED IMPRP ELECT VDW BOUNDARY MISC KINETIC TOTAL TEMP POTENTIAL TOTALAVG TEMPAVG PRESSURE GPRESSURE VOLUME PRESSAVG GPRESSAVG
ENERGY: 0 2.1190 10.1760 6.7053 0.0000 -10653.0431 1512.7272 0.0000 0.0000 1723.9899 -7397.3257 296.9540 -9121.3156 -7397.3257 296.9540 1012.1969 1097.8178 29505.6559 1012.1969 1097.8178
ENERGY: 300000 2.5815 10.1336 6.6681 0.0000 -10338.1978 1257.3901 0.0000 0.0000 1713.0965 -7348.3279 295.0777 -9061.4245 -7360.4759 296.3326 -1249.1593 -1155.8111 30024.9610 -521.3639 -438.8096
ENERGY: 600000 3.3562 12.1414 5.6434 0.0000 -10570.0447 1443.1332 0.0000 0.0000 1640.0353 -7465.7352 282.4930 -9105.7706 -7371.4237 296.2618 157.7870 259.9117 29780.6027 -418.2241 -343.8617
ENERGY: 900000 2.9642 10.4557 6.6908 0.0000 -10507.5776 1351.1514 0.0000 0.0000 1709.3541 -7426.9615 294.4330 -9136.3155 -7367.0835 298.3826 -775.1236 -698.7943 30102.5402 -376.2815 -312.9778
ENERGY: 1200000 2.6240 12.0069 7.3547 0.0000 -10547.6944 1412.4283 0.0000 0.0000 1742.5729 -7370.7075 300.1549 -9113.2804 -7358.0032 299.0570 281.7135 238.4615 29607.1867 -252.1944 -201.6292
ENERGY: 1500000 3.6955 18.0747 5.9322 0.0000 -10497.9335 1361.4148 0.0000 0.0000 1739.6310 -7369.1852 299.6482 -9108.8162 -7368.6396 299.1282 -519.5582 -385.6603 29935.8126 -260.8563 -203.1153
TCL: Running FEP window  12: Lambda1 0.4499999999999996 Lambda2 0.39999999999999963 [dLambda -0.04999999999999999]
TCL: Setting parameter firsttimestep to 0
TCL: Setting parameter alchLambda to 0.4499999999999996
Info: NONBONDED TABLE R-SQUARED SPACING: 0.0625
Info: NONBONDED TABLE SIZE: 705 POINTS
TCL: Setting parameter alchLambda2 to 0.39999999999999963
Info: NONBONDED TABLE R-SQUARED SPACING: 0.0625
Info: NONBONDED TABLE SIZE: 705 POINTS
TCL: Running for 1500000 steps
ETITLE: TS BOND ANGLE DIHED IMPRP ELECT VDW BOUNDARY MISC KINETIC TOTAL TEMP POTENTIAL TOTALAVG TEMPAVG PRESSURE GPRESSURE VOLUME PRESSAVG GPRESSAVG
ENERGY: 0 3.6955 18.0747 5.9322 0.0000 -10497.9333 1361.9773 0.0000 0.0000 1738.8028 -7369.4508 299.5055 -9108.2536 -7369.4508 299.5055 -487.8125 -387.7064 29935.8126 -487.8125 -387.7064
ENERGY: 300000 1.9259 13.3542 8.8684 0.0000 -10690.3440 1457.7482 0.0000 0.0000 1738.9021 -7469.5452 299.5226 -9208.4472 -7355.4185 300.8895 69.8319 74.6057 29704.3263 -231.4734 -188.5260
ENERGY: 600000 1.9201 9.2972 5.6031 0.0000 -10490.1729 1405.1881 0.0000 0.0000 1767.3249 -7300.8395 304.4184 -9068.1644 -7347.6857 301.7797 -113.9435 -49.2104 29918.0642 -143.1543 -86.3081
ENERGY: 900000 2.2440 17.5017 7.3503 0.0000 -10561.1263 1409.5502 0.0000 0.0000 1731.1767 -7393.3034 298.1919 -9124.4800 -7350.7914 301.3028 -362.7741 -289.3516 29997.4641 -163.6361 -107.4220
ENERGY: 1200000 1.1406 8.7680 7.1011 0.0000 -10574.5397 1497.8857 0.0000 0.0000 1766.6966 -7292.9478 304.3102 -9059.6444 -7350.0303 301.0165 822.7463 857.9120 29944.8914 -190.9924 -130.3755
ENERGY: 1500000 1.3084 7.9347 8.4475 0.0000 -10737.3140 1532.7155 0.0000 0.0000 1798.7559 -7388.1521 309.8323 -9186.9079 -7345.2180 301.5972 1029.1898 1068.5243 29259.7539 -35.9264 22.7884
TCL: Running FEP window  13: Lambda1 0.39999999999999963 Lambda2 0.34999999999999964 [dLambda -0.04999999999999999]
TCL: Setting parameter firsttimestep to 0
TCL: Setting parameter alchLambda to 0.39999999999999963
Info: NONBONDED TABLE R-SQUARED SPACING: 0.0625
Info: NONBONDED TABLE SIZE: 705 POINTS
TCL: Setting parameter alchLambda2 to 0.34999999999999964
Info: NONBONDED TABLE R-SQUARED SPACING: 0.0625
Info: NONBONDED TABLE SIZE: 705 POINTS
TCL: Running for 1500000 steps
ETITLE: TS BOND ANGLE DIHED IMPRP ELECT VDW BOUNDARY MISC KINETIC TOTAL TEMP POTENTIAL TOTALAVG TEMPAVG PRESSURE GPRESSURE VOLUME PRESSAVG GPRESSAVG
ENERGY: 0 1.3084 7.9346 8.4475 0.0000 -10737.3128 1532.9189 0.0000 0.0000 1797.8766 -7388.8268 309.6809 -9186.7034 -7388.8268 309.6809 1003.5849 1060.5826 29259.7539 1003.5849 1060.5826
ENERGY: 300000 1.6746 10.4967 7.5347 0.0000 -10498.8823 1410.8173 0.0000 0.0000 1726.9911 -7341.3679 297.4710 -9068.3589 -7305.0120 302.5588 -478.3031 -350.1185 30645.0227 3.5875 72.0438
ENERGY: 600000 0.8225 13.5001 7.1507 0.0000 -10379.9163 1318.7017 0.0000 0.0000 1848.3521 -7191.3891 318.3752 -9039.7412 -7305.5043 304.4115 -542.5989 -468.5123 30408.5828 31.9444 103.9408
ENERGY: 900000 2.2495 9.7827 6.8015 0.0000 -10631.1740 1487.2713 0.0000 0.0000 1734.4089 -7390.6600 298.7487 -9125.0689 -7332.0710 302.5152 517.4466 570.2312 29788.6088 64.3271 127.1674
ENERGY: 1200000 2.5759 13.6326 6.2497 0.0000 -10685.9853 1518.1850 0.0000 0.0000 1763.0444 -7382.2978 303.6811 -9145.3422 -7344.0965 301.6614 882.4637 1024.3782 29554.0420 130.9120 192.5225
ENERGY: 1500000 4.5363 16.4800 7.7575 0.0000 -10687.9090 1447.4198 0.0000 0.0000 1720.8864 -7490.8290 296.4194 -9211.7154 -7361.5990 301.1913 80.2598 201.5475 29483.5394 78.8547 147.2439
TCL: Running FEP window  14: Lambda1 0.34999999999999964 Lambda2 0.29999999999999966 [dLambda -0.04999999999999999]
TCL: Setting parameter firsttimestep to 0
TCL: Setting parameter alchLambda to 0.34999999999999964
Info: NONBONDED TABLE R-SQUARED SPACING: 0.0625
Info: NONBONDED TABLE SIZE: 705 POINTS
TCL: Setting parameter alchLambda2 to 0.29999999999999966
Info: NONBONDED TABLE R-SQUARED SPACING: 0.0625
Info: NONBONDED TABLE SIZE: 705 POINTS
TCL: Running for 1500000 steps
ETITLE: TS BOND ANGLE DIHED IMPRP ELECT VDW BOUNDARY MISC KINETIC TOTAL TEMP POTENTIAL TOTALAVG TEMPAVG PRESSURE GPRESSURE VOLUME PRESSAVG GPRESSAVG
ENERGY: 0 4.5363 16.4800 7.7575 0.0000 -10687.9084 1447.8016 0.0000 0.0000 1720.0137 -7491.3193 296.2691 -9211.3330 -7491.3193 296.2691 97.7970 193.7964 29483.5394 97.7970 193.7964
ENERGY: 300000 2.5515 7.9969 8.8261 0.0000 -10463.0857 1365.4240 0.0000 0.0000 1718.7217 -7359.5654 296.0466 -9078.2871 -7387.0454 296.6129 -479.0303 -354.3867 29894.5463 -266.4948 -213.6267
ENERGY: 600000 1.4568 7.3440 5.2442 0.0000 -10344.8717 1306.2093 0.0000 0.0000 1796.9171 -7227.7002 309.5156 -9024.6173 -7355.9813 300.1383 -667.7129 -614.0467 30280.4654 -308.4360 -261.9716
ENERGY: 900000 1.6071 13.9561 7.2896 0.0000 -10723.0026 1516.6956 0.0000 0.0000 1678.9882 -7504.4659 289.2026 -9183.4541 -7374.3355 298.6494 378.1735 446.5821 29923.4511 -97.7731 -50.9317
ENERGY: 1200000 3.5679 15.6077 7.4952 0.0000 -10581.2268 1426.4706 0.0000 0.0000 1819.2889 -7308.7966 313.3691 -9128.0854 -7360.3704 300.3471 3.2164 54.3363 29981.6903 -125.9338 -74.0943
ENERGY: 1500000 1.6512 13.2265 6.4883 0.0000 -10496.5807 1421.9206 0.0000 0.0000 1805.1484 -7248.1457 310.9334 -9053.2940 -7355.9942 300.5702 202.4090 177.0615 30170.7138 -141.8599 -88.2069
TCL: Running FEP window  15: Lambda1 0.29999999999999966 Lambda2 0.24999999999999967 [dLambda -0.04999999999999999]
TCL: Setting parameter firsttimestep to 0
TCL: Setting parameter alchLambda to 0.29999999999999966
Info: NONBONDED TABLE R-SQUARED SPACING: 0.0625
Info: NONBONDED TABLE SIZE: 705 POINTS
TCL: Setting parameter alchLambda2 to 0.24999999999999967
Info: NONBONDED TABLE R-SQUARED SPACING: 0.0625
Info: NONBONDED TABLE SIZE: 705 POINTS
TCL: Running for 1500000 steps
ETITLE: TS BOND ANGLE DIHED IMPRP ELECT VDW BOUNDARY MISC KINETIC TOTAL TEMP POTENTIAL TOTALAVG TEMPAVG PRESSURE GPRESSURE VOLUME PRESSAVG GPRESSAVG
ENERGY: 0 1.6512 13.2265 6.4883 0.0000 -10496.5806 1422.0699 0.0000 0.0000 1804.3079 -7248.8368 310.7886 -9053.1447 -7248.8368 310.7886 85.9658 169.4084 30170.7138 85.9658 169.4084
ENERGY: 300000 1.3427 14.2397 8.5774 0.0000 -10471.3324 1361.5957 0.0000 0.0000 1730.3999 -7355.1770 298.0581 -9085.5769 -7329.0496 302.7157 -598.8145 -544.9735 30166.5542 -169.6982 -110.5426
ENERGY: 600000 1.8613 11.0109 8.9598 0.0000 -10466.4408 1319.9949 0.0000 0.0000 1798.0117 -7326.6023 309.7041 -9124.6140 -7338.6162 303.1402 -807.8708 -769.1847 29981.7235 -396.7823 -328.8227
ENERGY: 900000 7.6152 8.9139 8.7076 0.0000 -10649.7250 1495.1395 0.0000 0.0000 1799.6267 -7329.7221 309.9823 -9129.3489 -7352.2725 303.3709 592.5184 583.6361 29889.6941 -256.5256 -197.4111
ENERGY: 1200000 2.5845 12.6313 6.0929 0.0000 -10549.0479 1445.9321 0.0000 0.0000 1694.3819 -7387.4252 291.8541 -9081.8071 -7362.5558 301.2581 200.6102 246.2843 29833.6867 -185.7281 -123.5982
ENERGY: 1500000 2.9943 13.2674 8.0590 0.0000 -10636.1015 1497.7852 0.0000 0.0000 1792.0018 -7321.9937 308.6689 -9113.9955 -7353.9340 302.3444 1080.0586 1216.7897 28996.6596 -70.9697 -9.6587
TCL: Running FEP window  16: Lambda1 0.24999999999999967 Lambda2 0.19999999999999968 [dLambda -0.04999999999999999]
TCL: Setting parameter firsttimestep to 0
TCL: Setting parameter alchLambda to 0.24999999999999967
Info: NONBONDED TABLE R-SQUARED SPACING: 0.0625
Info: NONBONDED TABLE SIZE: 705 POINTS
TCL: Setting parameter alchLambda2 to 0.19999999999999968
Info: NONBONDED TABLE R-SQUARED SPACING: 0.0625
Info: NONBONDED TABLE SIZE: 705 POINTS
TCL: Running for 1500000 steps
ETITLE: TS BOND ANGLE DIHED IMPRP ELECT VDW BOUNDARY MISC KINETIC TOTAL TEMP POTENTIAL TOTALAVG TEMPAVG PRESSURE GPRESSURE VOLUME PRESSAVG GPRESSAVG
ENERGY: 0 2.9943 13.2674 8.0590 0.0000 -10636.1005 1497.9396 0.0000 0.0000 1791.0837 -7322.7564 308.5108 -9113.8401 -7322.7564 308.5108 1126.2143 1213.2676 28996.6596 1126.2143 1213.2676
ENERGY: 300000 3.0963 10.5642 6.5749 0.0000 -10529.9042 1420.8603 0.0000 0.0000 1740.5053 -7348.3032 299.7988 -9088.8085 -7355.2843 303.3305 90.5244 91.8033 29874.7464 379.1195 444.3403
ENERGY: 600000 3.9230 6.6253 7.5815 0.0000 -10743.8932 1542.3228 0.0000 0.0000 1719.3388 -7464.1019 296.1529 -9183.4407 -7377.6147 300.9634 423.9764 455.8911 29908.4340 209.0754 278.3618
ENERGY: 900000 6.1021 12.8307 8.0219 0.0000 -10613.6533 1437.8561 0.0000 0.0000 1737.8569 -7410.9855 299.3426 -9148.8425 -7372.5544 301.3216 -427.6180 -365.5948 30380.7121 164.4811 227.0969
ENERGY: 1200000 1.1514 12.3219 6.8304 0.0000 -10602.6332 1472.6434 0.0000 0.0000 1697.6266 -7412.0596 292.4130 -9109.6862 -7365.2920 301.4381 270.8243 332.9502 30019.7933 109.6400 177.9813
ENERGY: 1500000 2.0678 7.8219 10.0250 0.0000 -10413.6388 1318.3494 0.0000 0.0000 1760.2633 -7315.1114 303.2021 -9075.3747 -7370.7807 300.9728 -864.7985 -804.0023 30224.1833 9.9523 75.1518
TCL: Running FEP window  17: Lambda1 0.19999999999999968 Lambda2 0.1499999999999997 [dLambda -0.04999999999999999]
TCL: Setting parameter firsttimestep to 0
TCL: Setting parameter alchLambda to 0.19999999999999968
Info: NONBONDED TABLE R-SQUARED SPACING: 0.0625
Info: NONBONDED TABLE SIZE: 705 POINTS
TCL: Setting parameter alchLambda2 to 0.1499999999999997
Info: NONBONDED TABLE R-SQUARED SPACING: 0.0625
Info: NONBONDED TABLE SIZE: 705 POINTS
TCL: Running for 1500000 steps
ETITLE: TS BOND ANGLE DIHED IMPRP ELECT VDW BOUNDARY MISC KINETIC TOTAL TEMP POTENTIAL TOTALAVG TEMPAVG PRESSURE GPRESSURE VOLUME PRESSAVG GPRESSAVG
ENERGY: 0 2.0678 7.8219 10.0250 0.0000 -10413.6400 1318.5329 0.0000 0.0000 1759.3792 -7315.8133 303.0498 -9075.1924 -7315.8133 303.0498 -894.4644 -810.3128 30224.1833 -894.4644 -810.3128
ENERGY: 300000 0.4040 13.5839 6.1316 0.0000 -10435.2130 1332.8817 0.0000 0.0000 1737.2842 -7344.9276 299.2439 -9082.2117 -7395.4399 295.8875 -683.8677 -617.0252 30069.8074 -445.8578 -362.4561
ENERGY: 600000 4.7697 11.1125 6.9450 0.0000 -10671.9848 1467.8562 0.0000 0.0000 1840.6190 -7340.6823 317.0432 -9181.3013 -7374.6845 300.4694 355.7106 430.5302 29132.3572 -165.1331 -90.7253
ENERGY: 900000 1.2087 9.0408 5.9524 0.0000 -10509.1833 1385.0068 0.0000 0.0000 1734.0102 -7373.9643 298.6800 -9107.9746 -7374.6285 299.0221 -319.6452 -279.7824 29794.9079 -75.7259 -9.7880
ENERGY: 1200000 2.9271 6.0336 8.1197 0.0000 -10498.6089 1322.9268 0.0000 0.0000 1690.9285 -7467.6731 291.2593 -9158.6017 -7384.0277 299.1153 -1127.7820 -1038.9431 29970.7417 -57.6238 11.4035
ENERGY: 1500000 1.5848 14.1779 6.8875 0.0000 -10717.6449 1557.3193 0.0000 0.0000 1740.6934 -7396.9820 299.8312 -9137.6754 -7381.2835 299.2840 1195.3616 1252.3586 29592.6867 8.9477 74.2926
TCL: Running FEP window  18: Lambda1 0.1499999999999997 Lambda2 0.09999999999999969 [dLambda -0.05 ]
TCL: Setting parameter firsttimestep to 0
TCL: Setting parameter alchLambda to 0.1499999999999997
Info: NONBONDED TABLE R-SQUARED SPACING: 0.0625
Info: NONBONDED TABLE SIZE: 705 POINTS
TCL: Setting parameter alchLambda2 to 0.09999999999999969
Info: NONBONDED TABLE R-SQUARED SPACING: 0.0625
Info: NONBONDED TABLE SIZE: 705 POINTS
TCL: Running for 1500000 steps
ETITLE: TS BOND ANGLE DIHED IMPRP ELECT VDW BOUNDARY MISC KINETIC TOTAL TEMP POTENTIAL TOTALAVG TEMPAVG PRESSURE GPRESSURE VOLUME PRESSAVG GPRESSAVG
ENERGY: 0 1.5848 14.1779 6.8875 0.0000 -10717.6449 1557.5110 0.0000 0.0000 1739.8190 -7397.6647 299.6806 -9137.4837 -7397.6647 299.6806 1162.4114 1252.5127 29592.6867 1162.4114 1252.5127
ENERGY: 300000 2.2620 11.5968 7.5812 0.0000 -10550.2532 1429.0451 0.0000 0.0000 1752.7765 -7346.9916 301.9125 -9099.7681 -7398.2947 300.5078 179.7352 289.9288 29398.5303 495.6495 592.1378
ENERGY: 600000 1.9255 13.2237 6.5919 0.0000 -10527.1572 1416.2251 0.0000 0.0000 1788.5057 -7300.6852 308.0667 -9089.1909 -7374.4893 300.7778 -178.1300 -113.2924 30163.1562 431.2284 505.6740
ENERGY: 900000 5.6107 13.7750 7.4009 0.0000 -10545.9008 1373.1406 0.0000 0.0000 1735.7116 -7410.2620 298.9731 -9145.9736 -7370.8974 301.2678 -457.1407 -493.2496 30261.1325 282.6503 329.0698
ENERGY: 1200000 4.6511 12.4339 7.5853 0.0000 -10602.6212 1474.7637 0.0000 0.0000 1725.3235 -7377.8637 297.1837 -9103.1872 -7374.8087 299.4215 13.4771 130.6429 29960.2760 250.2711 301.3291
ENERGY: 1500000 1.3588 6.9567 6.0026 0.0000 -10463.8325 1371.2682 0.0000 0.0000 1710.0521 -7368.1940 294.5533 -9078.2461 -7383.4687 298.8972 -479.3590 -464.4975 30258.1559 56.5629 111.6086
TCL: Running FEP window  19: Lambda1 0.09999999999999969 Lambda2 0.049999999999999684 [dLambda -0.05 ]
TCL: Setting parameter firsttimestep to 0
TCL: Setting parameter alchLambda to 0.09999999999999969
Info: NONBONDED TABLE R-SQUARED SPACING: 0.0625
Info: NONBONDED TABLE SIZE: 705 POINTS
TCL: Setting parameter alchLambda2 to 0.049999999999999684
Info: NONBONDED TABLE R-SQUARED SPACING: 0.0625
Info: NONBONDED TABLE SIZE: 705 POINTS
TCL: Running for 1500000 steps
ETITLE: TS BOND ANGLE DIHED IMPRP ELECT VDW BOUNDARY MISC KINETIC TOTAL TEMP POTENTIAL TOTALAVG TEMPAVG PRESSURE GPRESSURE VOLUME PRESSAVG GPRESSAVG
ENERGY: 0 1.3588 6.9567 6.0026 0.0000 -10463.8328 1370.2590 0.0000 0.0000 1709.2049 -7370.0508 294.4073 -9079.2557 -7370.0508 294.4073 -551.8003 -474.6942 30258.1559 -551.8003 -474.6942
ENERGY: 300000 2.8225 10.2299 6.3349 0.0000 -10434.5910 1367.3214 0.0000 0.0000 1720.7725 -7327.1097 296.3998 -9047.8822 -7330.2086 298.1421 -278.5484 -227.5933 30124.3213 -345.2799 -295.3139
ENERGY: 600000 3.5233 11.2707 6.2884 0.0000 -10777.2682 1526.3392 0.0000 0.0000 1720.7970 -7509.0495 296.4041 -9229.8465 -7374.6811 298.3776 667.0600 780.1173 29439.8726 -126.6873 -55.6765
ENERGY: 900000 2.6909 12.6109 6.4712 0.0000 -10517.1911 1427.9382 0.0000 0.0000 1762.5140 -7304.9660 303.5897 -9067.4800 -7374.6000 298.6965 -74.6344 -13.8459 30158.4744 10.6978 83.4903
ENERGY: 1200000 2.7610 16.4055 6.6953 0.0000 -10403.5257 1297.6075 0.0000 0.0000 1737.5341 -7342.5222 299.2870 -9080.0564 -7371.8569 299.7766 -751.7943 -727.4550 29774.0196 -42.0012 21.5891
ENERGY: 1500000 2.3807 17.8196 6.2806 0.0000 -10585.4909 1466.0249 0.0000 0.0000 1729.1858 -7363.7993 297.8490 -9092.9851 -7368.0268 299.8167 201.0802 277.0895 30152.9462 -82.3662 -17.6932
TCL: Running FEP window  20: Lambda1 0.049999999999999684 Lambda2 0.0    [dLambda -0.049999999999999684]
TCL: Setting parameter firsttimestep to 0
TCL: Setting parameter alchLambda to 0.049999999999999684
Info: NONBONDED TABLE R-SQUARED SPACING: 0.0625
Info: NONBONDED TABLE SIZE: 705 POINTS
TCL: Setting parameter alchLambda2 to 0.0
Info: NONBONDED TABLE R-SQUARED SPACING: 0.0625
Info: NONBONDED TABLE SIZE: 705 POINTS
TCL: Running for 1500000 steps
ETITLE: TS BOND ANGLE DIHED IMPRP ELECT VDW BOUNDARY MISC KINETIC TOTAL TEMP POTENTIAL TOTALAVG TEMPAVG PRESSURE GPRESSURE VOLUME PRESSAVG GPRESSAVG
ENERGY: 0 2.3807 17.8196 6.2806 0.0000 -10585.4915 1465.7911 0.0000 0.0000 1728.3516 -7364.8678 297.7053 -9093.2194 -7364.8678 297.7053 188.0838 270.4682 30152.9462 188.0838 270.4682
ENERGY: 300000 2.0613 9.7352 7.2002 0.0000 -10616.3011 1488.3164 0.0000 0.0000 1815.3312 -7293.6568 312.6874 -9108.9881 -7343.2052 301.3275 515.1922 607.4031 30061.7967 -36.9206 27.5311
ENERGY: 600000 1.1348 8.7165 5.4735 0.0000 -10642.4182 1473.5580 0.0000 0.0000 1741.9777 -7411.5576 300.0524 -9153.5353 -7365.4565 299.8876 429.7158 475.3229 29681.3186 -19.0877 34.5173
ENERGY: 900000 2.4648 11.1282 6.7668 0.0000 -10590.2445 1416.8324 0.0000 0.0000 1734.6328 -7418.4195 298.7872 -9153.0523 -7365.4241 300.4057 -137.1179 -101.9898 29734.4798 -29.6462 24.9365
ENERGY: 1200000 3.3405 12.3473 8.3394 0.0000 -10567.5209 1471.8957 0.0000 0.0000 1698.0711 -7373.5269 292.4896 -9071.5980 -7363.0400 299.8489 456.7180 555.2917 29677.4143 18.0291 72.9555
ENERGY: 1500000 3.7877 9.6317 6.3412 0.0000 -10375.2727 1342.7218 0.0000 0.0000 1750.0998 -7262.6904 301.4514 -9012.7902 -7349.1286 300.5560 -557.2336 -407.9243 30214.1612 -21.3698 32.7918
TCL: Exiting due to exit command.
