Info: SIMULATION PARAMETERS:
Info: TIMESTEP               2
Info: NUMBER OF STEPS        0
Info: STEPS PER CYCLE        10
Info: PERIODIC CELL BASIS 1  31.8169 0 0
Info: PERIODIC CELL BASIS 2  0 29.4389 0
Info: PERIODIC CELL BASIS 3  0 0 32.8685
Info: PERIODIC CELL CENTER   0 0 0
Info: WRAPPING WATERS AROUND PERIODIC BOUNDARIES ON OUTPUT.
Info: WRAPPING ALL CLUSTERS AROUND PERIODIC BOUNDARIES ON OUTPUT.
Info: FIRST LDB TIMESTEP     50
Info: LAST LDB TIMESTEP     -1
Info: HOM BACKGROUND SCALING 1
Info: PME BACKGROUND SCALING 1
Info: MIN ATOMS PER PATCH    40
Info: EMPTY PATCH LOAD       40 ATOMS
Info: VELOCITY FILE          mobley_2958326_equil.vel
Info: CENTER OF MASS MOVING INITIALLY? NO
Info: DIELECTRIC             1
Info: EXCLUDE                SCALED ONE-FOUR
Info: 1-4 ELECTROSTATICS SCALED BY 0.833333
Info: MODIFIED 1-4 VDW PARAMETERS WILL BE USED
Info: DCD FILENAME           mobley_2958326_prod.dcd
Info: DCD FREQUENCY          100000
Info: DCD FIRST STEP         100000
Info: DCD FILE WILL CONTAIN UNIT CELL DATA
Info: XST FILENAME           mobley_2958326_prod.xst
Info: XST FREQUENCY          100000
Info: NO VELOCITY DCD OUTPUT
Info: NO FORCE DCD OUTPUT
Info: OUTPUT FILENAME        mobley_2958326_prod
Info: BINARY OUTPUT FILES WILL BE USED
Info: RESTART FILENAME       mobley_2958326_prod.restart
Info: RESTART FREQUENCY      100000
Info: BINARY RESTART FILES WILL BE USED
Info: CUTOFF                 9
Info: PAIRLIST DISTANCE      11
Info: PAIRLIST SHRINK RATE   0.01
Info: PAIRLIST GROW RATE     0.01
Info: PAIRLIST TRIGGER       0.3
Info: PAIRLISTS PER CYCLE    2
Info: PAIRLISTS ENABLED
Info: MARGIN                 2
Info: HYDROGEN GROUP CUTOFF  2.5
Info: PATCH DIMENSION        15.5
Info: ENERGY OUTPUT STEPS    100000
Info: ENERGY EVALUATION STEPS    100000
Info: OUTPUT ENERGY PRECISION 4
Info: CROSSTERM ENERGY INCLUDED IN DIHEDRAL
Info: TIMING OUTPUT STEPS    1000000
Info: PRESSURE OUTPUT STEPS  100000
Info: ALCHEMICAL FEP ON
Info: FEP CURRENT LAMBDA VALUE     0
Info: FEP COMPARISON LAMBDA VALUE  0.05
Info: FEP INTRA-ALCHEMICAL NON-BONDED INTERACTIONS WILL BE RETAINED
Info: FEP INTRA-ALCHEMICAL BONDED INTERACTIONS WILL BE RETAINED
Info: FEP VDW SHIFTING COEFFICIENT 5
Info: FEP ELEC. ACTIVE FOR ANNIHILATED PARTICLES BETWEEN LAMBDA = 0 AND LAMBDA = 0.5
Info: FEP ELEC. ACTIVE FOR EXNIHILATED PARTICLES BETWEEN LAMBDA = 0.5 AND LAMBDA = 1
Info: FEP VDW ACTIVE FOR ANNIHILATED PARTICLES BETWEEN LAMBDA = 0 AND LAMBDA = 1
Info: FEP VDW ACTIVE FOR EXNIHILATED PARTICLES BETWEEN LAMBDA = 0 AND LAMBDA = 1
Info: FEP BOND ACTIVE FOR ANNIHILATED PARTICLES BETWEEN LAMBDA = 1 AND LAMBDA = 1
Info: FEP BOND ACTIVE FOR EXNIHILATED PARTICLES BETWEEN LAMBDA = 0 AND LAMBDA = 0
Info: LANGEVIN DYNAMICS ACTIVE
Info: LANGEVIN TEMPERATURE   300
Info: LANGEVIN USING BBK INTEGRATOR
Info: LANGEVIN DAMPING COEFFICIENT IS 1 INVERSE PS
Info: LANGEVIN DYNAMICS APPLIED TO HYDROGENS
Info: LANGEVIN PISTON PRESSURE CONTROL ACTIVE
Info:        TARGET PRESSURE IS 1.01325 BAR
Info:     OSCILLATION PERIOD IS 50 FS
Info:             DECAY TIME IS 25 FS
Info:     PISTON TEMPERATURE IS 300 K
Info:       PRESSURE CONTROL IS GROUP-BASED
Info:    INITIAL STRAIN RATE IS 0.000756073 0.000756073 0.000756073
Info:       CELL FLUCTUATION IS ISOTROPIC
Info: PARTICLE MESH EWALD (PME) ACTIVE
Info: PME TOLERANCE               1e-06
Info: PME EWALD COEFFICIENT       0.348832
Info: PME INTERPOLATION ORDER     4
Info: PME GRID DIMENSIONS         32 32 36
Info: PME MAXIMUM GRID SPACING    1
Info: PME CALCULATION WILL BE PERFORMED ON GPU
Info: FULL ELECTROSTATIC EVALUATION FREQUENCY      2
Info: USING VERLET I (r-RESPA) MTS SCHEME.
Info: C1 SPLITTING OF LONG RANGE ELECTROSTATICS
Info: PLACING ATOMS IN PATCHES BY HYDROGEN GROUPS
Info: RIGID BONDS TO HYDROGEN : ALL
Info:         ERROR TOLERANCE : 1e-08
Info:          MAX ITERATIONS : 100
Info: RIGID WATER USING SETTLE ALGORITHM
Info: RANDOM NUMBER SEED     1743975771
Info: USE HYDROGEN BONDS?    NO
Info: Using AMBER format force field!
Info: AMBER PARM FILE        mobley_2958326.prmtop
Info: COORDINATE PDB         mobley_2958326.pdb
Info: Exclusions will be read from PARM file!
Info: SCNB (VDW SCALING)     2
Info: USING ARITHMETIC MEAN TO COMBINE L-J SIGMA PARAMETERS
Info: BINARY COORDINATES     mobley_2958326_equil.coor
Info: SUMMARY OF PARAMETERS:
Info: 7 BONDS
Info: 9 ANGLES
Info:   9 HARMONIC
Info:   0 COSINE-BASED
Info: 5 DIHEDRAL
Info: 0 IMPROPER
Info: 0 CROSSTERM
Info: 0 VDW
Info: 28 VDW_PAIRS
Info: 0 NBTHOLE_PAIRS
Info: To read alchdata from file: mobley_2958326.pdb
Info: To read alchflag data from column: 5
Info: STRUCTURE SUMMARY:
Info: 2974 ATOMS
Info: 2973 BONDS
Info: 39 ANGLES
Info: 50 DIHEDRALS
Info: 0 IMPROPERS
Info: 0 CROSSTERMS
Info: 3060 EXCLUSIONS
Info: 2967 RIGID BONDS
Info: ALCH: 0 ATOMS TO DISAPPEAR IN FINAL STATE
Info: ALCH: 22 ATOMS TO APPEAR IN FINAL STATE
Info: 5955 DEGREES OF FREEDOM
Info: 991 HYDROGEN GROUPS
Info: 4 ATOMS IN LARGEST HYDROGEN GROUP
Info: 991 MIGRATION GROUPS
Info: 4 ATOMS IN LARGEST MIGRATION GROUP
Info: TOTAL MASS = 17828.9 amu
Info: TOTAL CHARGE = 7.45058e-09 e
Info: MASS DENSITY = 0.961669 g/cm^3
Info: ATOM DENSITY = 0.0966011 atoms/A^3
Info: ADDED 0 IMPLICIT EXCLUSIONS
Info: NONBONDED TABLE R-SQUARED SPACING: 0.0625
Info: NONBONDED TABLE SIZE: 705 POINTS
Info: REMOVING COM VELOCITY -0.00861405 -0.0541639 -0.0846375
Info: Use 3D box decompostion in PME FFT.
Info: Updated CUDA force table with 4096 elements.
Info: Updated CUDA LJ table with 7 x 7 elements.
Info: Found 25 unique exclusion lists needing 72 bytes
TCL: Running for 1500000 steps
ETITLE: TS BOND ANGLE DIHED IMPRP ELECT VDW BOUNDARY MISC KINETIC TOTAL TEMP POTENTIAL TOTALAVG TEMPAVG PRESSURE GPRESSURE VOLUME PRESSAVG GPRESSAVG
ENERGY: 0 2.1131 10.3315 1.2541 0.0000 -10783.9464 1418.4341 0.0000 0.0000 1705.4333 -7646.3803 288.2328 -9351.8135 -7646.3803 288.2328 -745.7111 -647.1281 30786.4020 -745.7111 -647.1281
ENERGY: 300000 0.7822 6.7389 2.6299 0.0000 -10760.9544 1484.3809 0.0000 0.0000 1765.8833 -7500.5391 298.4493 -9266.4225 -7549.4453 295.6776 380.7481 461.0012 30396.3291 -43.5923 23.6146
ENERGY: 600000 3.0056 11.6054 1.7591 0.0000 -10807.5971 1464.9472 0.0000 0.0000 1769.1108 -7557.1690 298.9948 -9326.2798 -7543.9646 296.8518 296.4408 389.2008 29953.5896 79.2803 151.5602
ENERGY: 900000 0.8324 8.1186 1.2265 0.0000 -10813.3844 1454.2518 0.0000 0.0000 1788.9133 -7560.0418 302.3416 -9348.9551 -7545.2074 297.6423 92.0523 157.0066 30060.4732 65.4409 144.0923
ENERGY: 1200000 2.1346 12.5315 1.8911 0.0000 -10862.5723 1457.2780 0.0000 0.0000 1777.7936 -7610.9434 300.4623 -9388.7370 -7541.8373 299.3977 -406.1803 -328.2611 30656.1698 47.2389 128.3379
ENERGY: 1500000 1.7172 7.7846 1.5989 0.0000 -10744.3438 1447.3509 0.0000 0.0000 1754.1522 -7531.7399 296.4667 -9285.8921 -7543.6019 298.4461 -255.3444 -171.2270 30507.9194 -59.0095 22.5169
TCL: Running FEP window   2: Lambda1 0.05   Lambda2 0.1    [dLambda 0.05  ]
TCL: Setting parameter firsttimestep to 0
TCL: Setting parameter alchLambda to 0.05
Info: NONBONDED TABLE R-SQUARED SPACING: 0.0625
Info: NONBONDED TABLE SIZE: 705 POINTS
TCL: Setting parameter alchLambda2 to 0.1
Info: NONBONDED TABLE R-SQUARED SPACING: 0.0625
Info: NONBONDED TABLE SIZE: 705 POINTS
TCL: Running for 1500000 steps
ETITLE: TS BOND ANGLE DIHED IMPRP ELECT VDW BOUNDARY MISC KINETIC TOTAL TEMP POTENTIAL TOTALAVG TEMPAVG PRESSURE GPRESSURE VOLUME PRESSAVG GPRESSAVG
ENERGY: 0 1.7172 7.7846 1.5989 0.0000 -10744.3435 1452.0953 0.0000 0.0000 1753.2534 -7527.8941 296.3148 -9281.1475 -7527.8941 296.3148 -251.0627 -161.6984 30507.9194 -251.0627 -161.6984
ENERGY: 300000 1.4359 9.6887 0.9276 0.0000 -10785.5747 1483.5072 0.0000 0.0000 1735.4448 -7554.5704 293.3050 -9290.0152 -7525.1919 297.6957 143.5372 190.6477 30294.7556 -47.4960 23.7507
ENERGY: 600000 3.9764 7.9233 1.9947 0.0000 -10772.3539 1493.2323 0.0000 0.0000 1807.1017 -7458.1255 305.4156 -9265.2272 -7513.5052 297.7307 340.2073 374.7100 30340.3810 -115.8058 -55.2422
ENERGY: 900000 3.1427 8.7448 1.1008 0.0000 -10720.5477 1419.5428 0.0000 0.0000 1813.2241 -7474.7926 306.4503 -9288.0166 -7501.2683 298.8978 -411.1930 -346.3286 30660.7036 -114.6403 -47.1522
ENERGY: 1200000 1.3435 8.6748 2.1892 0.0000 -10797.0647 1543.9081 0.0000 0.0000 1764.1203 -7476.8288 298.1514 -9240.9491 -7497.0649 298.4610 1066.8425 1127.7930 30159.8070 -46.8610 13.3828
ENERGY: 1500000 1.2805 10.9233 3.3197 0.0000 -10740.7136 1417.8221 0.0000 0.0000 1821.6768 -7485.6912 307.8789 -9307.3680 -7497.3731 298.8518 -248.6236 -208.7153 30345.3131 -107.5465 -48.9443
TCL: Running FEP window   3: Lambda1 0.1    Lambda2 0.15000000000000002 [dLambda 0.05000000000000002]
TCL: Setting parameter firsttimestep to 0
TCL: Setting parameter alchLambda to 0.1
Info: NONBONDED TABLE R-SQUARED SPACING: 0.0625
Info: NONBONDED TABLE SIZE: 705 POINTS
TCL: Setting parameter alchLambda2 to 0.15000000000000002
Info: NONBONDED TABLE R-SQUARED SPACING: 0.0625
Info: NONBONDED TABLE SIZE: 705 POINTS
TCL: Running for 1500000 steps
ETITLE: TS BOND ANGLE DIHED IMPRP ELECT VDW BOUNDARY MISC KINETIC TOTAL TEMP POTENTIAL TOTALAVG TEMPAVG PRESSURE GPRESSURE VOLUME PRESSAVG GPRESSAVG
ENERGY: 0 1.2805 10.9233 3.3197 0.0000 -10740.7147 1420.4157 0.0000 0.0000 1820.8018 -7483.9736 307.7310 -9304.7754 -7483.9736 307.7310 -274.8067 -198.8636 30345.3131 -274.8067 -198.8636
ENERGY: 300000 2.9823 9.1703 1.0313 0.0000 -10670.6879 1406.5226 0.0000 0.0000 1780.2829 -7470.6985 300.8830 -9250.9814 -7477.5163 301.4025 -28.8819 11.4778 30245.4503 -83.9158 -7.6075
ENERGY: 600000 3.3428 8.6290 2.5759 0.0000 -10858.1050 1519.6872 0.0000 0.0000 1777.1073 -7546.7629 300.3463 -9323.8702 -7476.1766 301.4760 453.6606 491.4011 30205.9900 -21.3425 51.3881
ENERGY: 900000 2.7666 13.0968 3.9560 0.0000 -10908.5136 1510.9891 0.0000 0.0000 1825.8927 -7551.8124 308.5914 -9377.7051 -7501.4234 301.6953 350.3434 407.4557 30142.9027 47.0090 126.2659
ENERGY: 1200000 0.5980 5.4632 2.3116 0.0000 -10740.9615 1389.6131 0.0000 0.0000 1856.0804 -7486.8952 313.6934 -9342.9756 -7498.7597 302.0634 -607.4333 -510.8432 30573.9241 -14.4971 56.7029
ENERGY: 1500000 0.6920 10.0986 4.8704 0.0000 -10696.6326 1416.5685 0.0000 0.0000 1775.4192 -7488.9839 300.0610 -9264.4031 -7499.3218 302.2618 -213.5575 -210.8931 30648.2987 -12.0752 52.5978
TCL: Running FEP window   4: Lambda1 0.15000000000000002 Lambda2 0.2    [dLambda 0.04999999999999999]
TCL: Setting parameter firsttimestep to 0
TCL: Setting parameter alchLambda to 0.15000000000000002
Info: NONBONDED TABLE R-SQUARED SPACING: 0.0625
Info: NONBONDED TABLE SIZE: 705 POINTS
TCL: Setting parameter alchLambda2 to 0.2
Info: NONBONDED TABLE R-SQUARED SPACING: 0.0625
Info: NONBONDED TABLE SIZE: 705 POINTS
TCL: Running for 1500000 steps
ETITLE: TS BOND ANGLE DIHED IMPRP ELECT VDW BOUNDARY MISC KINETIC TOTAL TEMP POTENTIAL TOTALAVG TEMPAVG PRESSURE GPRESSURE VOLUME PRESSAVG GPRESSAVG
ENERGY: 0 0.6920 10.0986 4.8704 0.0000 -10696.6320 1416.8460 0.0000 0.0000 1774.5511 -7489.5739 299.9143 -9264.1250 -7489.5739 299.9143 -275.6118 -204.9804 30648.2987 -275.6118 -204.9804
ENERGY: 300000 1.2858 8.0657 2.3806 0.0000 -10703.5169 1444.1758 0.0000 0.0000 1796.0624 -7451.5466 303.5499 -9247.6090 -7469.3022 298.5957 -12.6819 54.9312 30617.3418 -316.1742 -249.3823
ENERGY: 600000 0.9251 10.4175 2.0411 0.0000 -10754.5596 1418.3349 0.0000 0.0000 1793.1424 -7529.6986 303.0564 -9322.8410 -7496.6483 299.5150 -624.4315 -512.4653 30828.1840 -210.4355 -140.6971
ENERGY: 900000 3.1714 10.0017 2.2555 0.0000 -10740.7094 1424.6281 0.0000 0.0000 1760.7387 -7539.9140 297.5799 -9300.6527 -7503.2198 300.0093 -53.7034 -59.0426 30548.1314 -122.2948 -64.3536
ENERGY: 1200000 0.4717 7.2852 2.2559 0.0000 -10803.9733 1545.5074 0.0000 0.0000 1813.1921 -7435.2610 306.4449 -9248.4531 -7498.4001 301.5662 1079.6571 1079.2073 30250.3082 -45.9704 6.4580
ENERGY: 1500000 0.7140 9.3967 1.5316 0.0000 -10747.1408 1474.5774 0.0000 0.0000 1782.6482 -7478.2728 301.2827 -9260.9210 -7493.5136 301.5337 119.3819 183.5684 30695.0288 -53.5060 1.2666
TCL: Running FEP window   5: Lambda1 0.2    Lambda2 0.25   [dLambda 0.04999999999999999]
TCL: Setting parameter firsttimestep to 0
TCL: Setting parameter alchLambda to 0.2
Info: NONBONDED TABLE R-SQUARED SPACING: 0.0625
Info: NONBONDED TABLE SIZE: 705 POINTS
TCL: Setting parameter alchLambda2 to 0.25
Info: NONBONDED TABLE R-SQUARED SPACING: 0.0625
Info: NONBONDED TABLE SIZE: 705 POINTS
TCL: Running for 1500000 steps
ETITLE: TS BOND ANGLE DIHED IMPRP ELECT VDW BOUNDARY MISC KINETIC TOTAL TEMP POTENTIAL TOTALAVG TEMPAVG PRESSURE GPRESSURE VOLUME PRESSAVG GPRESSAVG
ENERGY: 0 0.7140 9.3967 1.5316 0.0000 -10747.1399 1474.5338 0.0000 0.0000 1781.7736 -7479.1902 301.1349 -9260.9638 -7479.1902 301.1349 111.4164 186.7304 30695.0288 111.4164 186.7304
ENERGY: 300000 2.1217 14.6437 3.1862 0.0000 -10549.7898 1364.0315 0.0000 0.0000 1774.0369 -7391.7698 299.8274 -9165.8068 -7450.4337 299.8665 -738.1232 -702.0194 31488.3607 -27.0837 50.0638
ENERGY: 600000 6.1221 9.3962 1.9976 0.0000 -10834.5942 1504.9550 0.0000 0.0000 1835.5854 -7476.5379 310.2296 -9312.1233 -7475.8841 301.3742 109.3179 198.4400 30731.9151 3.3263 67.2085
ENERGY: 900000 0.8807 10.1422 1.3464 0.0000 -10828.4544 1540.1878 0.0000 0.0000 1736.1574 -7539.7398 293.4254 -9275.8973 -7496.2323 300.1912 696.0427 739.1327 30381.0080 141.2682 202.6032
ENERGY: 1200000 0.8360 8.8045 1.1568 0.0000 -10653.6948 1439.1500 0.0000 0.0000 1778.2960 -7425.4514 300.5472 -9203.7474 -7487.7031 300.6853 124.2057 165.8809 30971.3247 57.5746 119.1924
ENERGY: 1500000 4.3319 8.8271 1.4532 0.0000 -10613.5256 1359.6991 0.0000 0.0000 1786.3238 -7452.8906 301.9040 -9239.2144 -7484.4684 300.9156 -696.3328 -684.8173 30434.9196 29.8773 85.3810
TCL: Running FEP window   6: Lambda1 0.25   Lambda2 0.3    [dLambda 0.04999999999999999]
TCL: Setting parameter firsttimestep to 0
TCL: Setting parameter alchLambda to 0.25
Info: NONBONDED TABLE R-SQUARED SPACING: 0.0625
Info: NONBONDED TABLE SIZE: 705 POINTS
TCL: Setting parameter alchLambda2 to 0.3
Info: NONBONDED TABLE R-SQUARED SPACING: 0.0625
Info: NONBONDED TABLE SIZE: 705 POINTS
TCL: Running for 1500000 steps
ETITLE: TS BOND ANGLE DIHED IMPRP ELECT VDW BOUNDARY MISC KINETIC TOTAL TEMP POTENTIAL TOTALAVG TEMPAVG PRESSURE GPRESSURE VOLUME PRESSAVG GPRESSAVG
ENERGY: 0 4.3319 8.8271 1.4532 0.0000 -10613.5254 1360.7829 0.0000 0.0000 1785.4123 -7452.7180 301.7499 -9238.1303 -7452.7180 301.7499 -757.7582 -677.1705 30434.9196 -757.7582 -677.1705
ENERGY: 300000 1.1011 11.3438 0.9980 0.0000 -10788.9018 1509.1943 0.0000 0.0000 1729.5557 -7536.7089 292.3097 -9266.2646 -7547.2176 292.0041 900.4075 962.4280 29859.7942 -183.1204 -114.2835
ENERGY: 600000 2.7169 8.7988 1.5406 0.0000 -10804.9912 1467.3613 0.0000 0.0000 1789.6898 -7534.8838 302.4728 -9324.5736 -7540.8451 296.5032 235.7797 319.7691 30366.2119 -168.9988 -93.4798
ENERGY: 900000 1.2287 9.9417 1.9200 0.0000 -10764.7504 1429.3416 0.0000 0.0000 1768.2622 -7554.0563 298.8514 -9322.3184 -7524.4072 297.4387 -198.2269 -94.1211 30234.8769 -107.4392 -32.5211
ENERGY: 1200000 1.6726 6.7255 4.3072 0.0000 -10903.2326 1535.2572 0.0000 0.0000 1814.0072 -7541.2630 306.5827 -9355.2701 -7521.7831 299.5868 656.9302 670.2688 30132.3001 -8.7293 56.8944
ENERGY: 1500000 1.4990 10.8884 2.3145 0.0000 -10714.6287 1436.5709 0.0000 0.0000 1805.8665 -7457.4894 305.2068 -9263.3560 -7519.4348 299.7835 -278.8813 -172.2999 30774.9000 -80.3594 -13.7059
TCL: Running FEP window   7: Lambda1 0.3    Lambda2 0.35   [dLambda 0.04999999999999999]
TCL: Setting parameter firsttimestep to 0
TCL: Setting parameter alchLambda to 0.3
Info: NONBONDED TABLE R-SQUARED SPACING: 0.0625
Info: NONBONDED TABLE SIZE: 705 POINTS
TCL: Setting parameter alchLambda2 to 0.35
Info: NONBONDED TABLE R-SQUARED SPACING: 0.0625
Info: NONBONDED TABLE SIZE: 705 POINTS
TCL: Running for 1500000 steps
ETITLE: TS BOND ANGLE DIHED IMPRP ELECT VDW BOUNDARY MISC KINETIC TOTAL TEMP POTENTIAL TOTALAVG TEMPAVG PRESSURE GPRESSURE VOLUME PRESSAVG GPRESSAVG
ENERGY: 0 1.4990 10.8884 2.3145 0.0000 -10714.6283 1436.9740 0.0000 0.0000 1804.9763 -7457.9761 305.0564 -9262.9524 -7457.9761 305.0564 -231.5849 -166.0064 30774.9000 -231.5849 -166.0064
ENERGY: 300000 3.8584 9.0406 1.6666 0.0000 -10782.4870 1447.6363 0.0000 0.0000 1769.7924 -7550.4927 299.1100 -9320.2851 -7531.7739 298.3936 -325.9890 -189.4579 30675.3666 -164.4305 -86.9236
ENERGY: 600000 1.7523 11.6529 1.3507 0.0000 -10729.7826 1475.1575 0.0000 0.0000 1751.3192 -7488.5500 295.9879 -9239.8692 -7525.9645 298.9738 311.2672 338.5696 30547.1366 93.2422 144.5392
ENERGY: 900000 1.2300 9.4749 1.0957 0.0000 -10631.6911 1421.8937 0.0000 0.0000 1727.8468 -7470.1499 292.0209 -9197.9968 -7532.3809 297.7919 -4.9465 88.6265 30456.2715 -8.1792 59.1207
ENERGY: 1200000 1.9649 8.3174 1.6591 0.0000 -10614.9319 1335.5550 0.0000 0.0000 1777.3788 -7490.0566 300.3922 -9267.4354 -7516.4180 297.9160 -1014.6551 -945.8161 30736.6471 -166.0752 -90.6357
ENERGY: 1500000 3.3405 8.2146 1.3777 0.0000 -10686.2059 1422.8608 0.0000 0.0000 1766.5679 -7483.8445 298.5650 -9250.4123 -7510.7414 298.0994 176.9005 268.3406 30311.6390 -121.1399 -45.1398
TCL: Running FEP window   8: Lambda1 0.35   Lambda2 0.39999999999999997 [dLambda 0.04999999999999999]
TCL: Setting parameter firsttimestep to 0
TCL: Setting parameter alchLambda to 0.35
Info: NONBONDED TABLE R-SQUARED SPACING: 0.0625
Info: NONBONDED TABLE SIZE: 705 POINTS
TCL: Setting parameter alchLambda2 to 0.39999999999999997
Info: NONBONDED TABLE R-SQUARED SPACING: 0.0625
Info: NONBONDED TABLE SIZE: 705 POINTS
TCL: Running for 1500000 steps
ETITLE: TS BOND ANGLE DIHED IMPRP ELECT VDW BOUNDARY MISC KINETIC TOTAL TEMP POTENTIAL TOTALAVG TEMPAVG PRESSURE GPRESSURE VOLUME PRESSAVG GPRESSAVG
ENERGY: 0 3.3405 8.2146 1.3777 0.0000 -10686.2053 1423.4990 0.0000 0.0000 1765.6755 -7484.0980 298.4142 -9249.7735 -7484.0980 298.4142 215.5333 278.7220 30311.6390 215.5333 278.7220
ENERGY: 300000 1.7233 11.2139 2.5852 0.0000 -10792.8279 1490.6394 0.0000 0.0000 1705.9879 -7580.6782 288.3265 -9286.6661 -7539.0362 297.1211 450.5790 479.8728 30259.5220 71.4811 128.0779
ENERGY: 600000 0.8402 6.0681 0.8809 0.0000 -10687.5161 1440.4668 0.0000 0.0000 1751.8982 -7487.3620 296.0857 -9239.2602 -7526.2161 298.6874 -102.6067 -22.1334 30924.9214 -107.9646 -51.3429
ENERGY: 900000 4.2219 5.5568 1.3229 0.0000 -10862.9759 1527.8732 0.0000 0.0000 1779.1233 -7544.8778 300.6870 -9324.0011 -7527.4284 298.7604 580.4764 639.3156 30345.5178 -83.0587 -19.2099
ENERGY: 1200000 1.7663 10.1097 2.9204 0.0000 -10687.4321 1406.1273 0.0000 0.0000 1723.8428 -7542.6656 291.3441 -9266.5084 -7525.9585 297.5619 -320.8025 -305.7004 30742.8636 -80.2745 -23.1815
ENERGY: 1500000 1.8473 6.4739 1.3860 0.0000 -10829.3658 1442.5120 0.0000 0.0000 1797.0117 -7580.1349 303.7103 -9377.1467 -7525.7131 298.2462 -103.3677 -33.7337 30297.4508 -75.4013 -22.7812
TCL: Running FEP window   9: Lambda1 0.39999999999999997 Lambda2 0.44999999999999996 [dLambda 0.04999999999999999]
TCL: Setting parameter firsttimestep to 0
TCL: Setting parameter alchLambda to 0.39999999999999997
Info: NONBONDED TABLE R-SQUARED SPACING: 0.0625
Info: NONBONDED TABLE SIZE: 705 POINTS
TCL: Setting parameter alchLambda2 to 0.44999999999999996
Info: NONBONDED TABLE R-SQUARED SPACING: 0.0625
Info: NONBONDED TABLE SIZE: 705 POINTS
TCL: Running for 1500000 steps
ETITLE: TS BOND ANGLE DIHED IMPRP ELECT VDW BOUNDARY MISC KINETIC TOTAL TEMP POTENTIAL TOTALAVG TEMPAVG PRESSURE GPRESSURE VOLUME PRESSAVG GPRESSAVG
ENERGY: 0 1.8473 6.4739 1.3860 0.0000 -10829.3654 1442.4020 0.0000 0.0000 1796.0677 -7581.1885 303.5508 -9377.2563 -7581.1885 303.5508 -113.6925 -30.6775 30297.4508 -113.6925 -30.6775
ENERGY: 300000 2.7655 7.4896 0.9692 0.0000 -10805.1154 1487.4537 0.0000 0.0000 1745.7789 -7560.6585 295.0515 -9306.4374 -7557.5248 299.0901 95.0168 112.6345 30733.1070 -18.0893 49.0057
ENERGY: 600000 2.5420 8.8302 1.4497 0.0000 -10602.9517 1424.9193 0.0000 0.0000 1773.2150 -7391.9955 299.6885 -9165.2105 -7532.0488 298.9315 363.7859 401.5862 30702.2946 18.2964 82.9480
ENERGY: 900000 4.3502 9.2308 2.0986 0.0000 -10508.4379 1301.3289 0.0000 0.0000 1734.5623 -7456.8670 293.1558 -9191.4294 -7516.6868 298.5997 -1183.6114 -1160.3203 31220.2904 -18.7607 42.4707
ENERGY: 1200000 4.8851 12.9833 2.1528 0.0000 -10847.4200 1505.7610 0.0000 0.0000 1813.1102 -7508.5275 306.4311 -9321.6377 -7524.4461 299.6613 84.1684 164.4528 30740.5226 -123.7213 -54.9754
ENERGY: 1500000 1.4958 11.5656 3.0696 0.0000 -10742.7345 1433.5281 0.0000 0.0000 1803.7962 -7489.2791 304.8569 -9293.0754 -7524.0078 300.4322 -315.0647 -192.0585 30764.5966 -188.2777 -117.8880
TCL: Running FEP window  10: Lambda1 0.44999999999999996 Lambda2 0.49999999999999994 [dLambda 0.04999999999999999]
TCL: Setting parameter firsttimestep to 0
TCL: Setting parameter alchLambda to 0.44999999999999996
Info: NONBONDED TABLE R-SQUARED SPACING: 0.0625
Info: NONBONDED TABLE SIZE: 705 POINTS
TCL: Setting parameter alchLambda2 to 0.49999999999999994
Info: NONBONDED TABLE R-SQUARED SPACING: 0.0625
Info: NONBONDED TABLE SIZE: 705 POINTS
TCL: Running for 1500000 steps
ETITLE: TS BOND ANGLE DIHED IMPRP ELECT VDW BOUNDARY MISC KINETIC TOTAL TEMP POTENTIAL TOTALAVG TEMPAVG PRESSURE GPRESSURE VOLUME PRESSAVG GPRESSAVG
ENERGY: 0 1.4958 11.5656 3.0696 0.0000 -10742.7345 1433.6150 0.0000 0.0000 1802.9144 -7490.0741 304.7079 -9292.9884 -7490.0741 304.7079 -276.3644 -185.2060 30764.5966 -276.3644 -185.2060
ENERGY: 300000 1.5597 10.0369 1.4348 0.0000 -10710.9578 1462.8782 0.0000 0.0000 1780.1991 -7454.8490 300.8688 -9235.0481 -7491.4471 299.6776 328.5888 380.4321 30548.4799 69.6071 125.7368
ENERGY: 600000 0.9946 7.1356 1.1947 0.0000 -10664.4275 1367.0646 0.0000 0.0000 1754.1132 -7533.9247 296.4601 -9288.0379 -7516.0063 298.6369 -707.7234 -705.8313 31012.5175 -262.8469 -200.7770
ENERGY: 900000 3.1581 10.6366 2.8664 0.0000 -10610.9130 1338.4263 0.0000 0.0000 1777.3284 -7478.4973 300.3836 -9255.8256 -7524.2729 298.8471 -825.1342 -777.0287 30719.1900 -228.9994 -168.3226
ENERGY: 1200000 2.2236 6.0441 1.5031 0.0000 -10785.7717 1466.0689 0.0000 0.0000 1801.1457 -7508.7862 304.4090 -9309.9319 -7529.6445 299.6867 -53.1200 -8.3853 31208.3515 -200.2604 -130.8662
ENERGY: 1500000 2.3580 11.9381 4.1293 0.0000 -10588.7593 1361.7979 0.0000 0.0000 1797.5833 -7410.9527 303.8069 -9208.5360 -7522.4964 299.2829 -562.6627 -490.5212 30594.0422 -250.4264 -179.9088
TCL: Running FEP window  11: Lambda1 0.49999999999999994 Lambda2 0.5499999999999999 [dLambda 0.04999999999999999]
TCL: Setting parameter firsttimestep to 0
TCL: Setting parameter alchLambda to 0.49999999999999994
Info: NONBONDED TABLE R-SQUARED SPACING: 0.0625
Info: NONBONDED TABLE SIZE: 705 POINTS
TCL: Setting parameter alchLambda2 to 0.5499999999999999
Info: NONBONDED TABLE R-SQUARED SPACING: 0.0625
Info: NONBONDED TABLE SIZE: 705 POINTS
TCL: Running for 1500000 steps
ETITLE: TS BOND ANGLE DIHED IMPRP ELECT VDW BOUNDARY MISC KINETIC TOTAL TEMP POTENTIAL TOTALAVG TEMPAVG PRESSURE GPRESSURE VOLUME PRESSAVG GPRESSAVG
ENERGY: 0 2.3580 11.9381 4.1293 0.0000 -10588.7597 1361.4518 0.0000 0.0000 1796.6872 -7412.1953 303.6555 -9208.8824 -7412.1953 303.6555 -575.6897 -485.6353 30594.0422 -575.6897 -485.6353
ENERGY: 300000 1.4541 7.5852 3.8093 0.0000 -10828.5154 1469.3351 0.0000 0.0000 1750.4880 -7595.8438 295.8474 -9346.3317 -7489.0263 300.2808 -92.9947 -14.8422 30643.4898 -177.8330 -112.1322
ENERGY: 600000 1.4545 12.8699 4.6331 0.0000 -10763.9311 1454.7532 0.0000 0.0000 1824.0111 -7466.2092 308.2734 -9290.2203 -7489.4362 301.2491 -96.8857 -68.3274 30894.8982 -219.8327 -159.4314
ENERGY: 900000 1.3374 8.3684 1.7524 0.0000 -10888.7464 1557.9393 0.0000 0.0000 1787.7213 -7531.6277 302.1401 -9319.3489 -7507.8895 300.2990 894.9789 1002.8436 30244.2319 -54.2382 3.6268
ENERGY: 1200000 1.7534 10.5335 1.2202 0.0000 -10578.2781 1357.4549 0.0000 0.0000 1767.5210 -7439.7951 298.7261 -9207.3161 -7516.0582 299.8735 -485.8235 -469.0768 30562.8296 -85.3436 -31.5963
ENERGY: 1500000 0.5468 9.6835 0.7252 0.0000 -10754.9651 1424.8975 0.0000 0.0000 1767.8850 -7551.2270 298.7876 -9319.1120 -7516.0841 299.6313 -346.9286 -328.4521 30676.1129 -51.7227 10.7755
TCL: Running FEP window  12: Lambda1 0.5499999999999999 Lambda2 0.6    [dLambda 0.050000000000000044]
TCL: Setting parameter firsttimestep to 0
TCL: Setting parameter alchLambda to 0.5499999999999999
Info: NONBONDED TABLE R-SQUARED SPACING: 0.0625
Info: NONBONDED TABLE SIZE: 705 POINTS
TCL: Setting parameter alchLambda2 to 0.6
Info: NONBONDED TABLE R-SQUARED SPACING: 0.0625
Info: NONBONDED TABLE SIZE: 705 POINTS
TCL: Running for 1500000 steps
ETITLE: TS BOND ANGLE DIHED IMPRP ELECT VDW BOUNDARY MISC KINETIC TOTAL TEMP POTENTIAL TOTALAVG TEMPAVG PRESSURE GPRESSURE VOLUME PRESSAVG GPRESSAVG
ENERGY: 0 0.5468 9.6835 0.7252 0.0000 -10755.0132 1425.3940 0.0000 0.0000 1767.0037 -7551.6599 298.6387 -9318.6636 -7551.6599 298.6387 -394.5957 -316.7719 30676.1129 -394.5957 -316.7719
ENERGY: 300000 0.4839 8.2649 0.7256 0.0000 -10750.7497 1469.2484 0.0000 0.0000 1798.2669 -7473.7600 303.9224 -9272.0269 -7481.0443 303.5616 -11.9597 61.6005 30968.6924 -173.2552 -80.4882
ENERGY: 600000 1.3731 11.6036 1.7501 0.0000 -10638.5108 1449.8403 0.0000 0.0000 1742.2734 -7431.6704 294.4591 -9173.9438 -7498.2081 301.6852 -101.1639 91.6312 31242.0479 -240.5505 -140.6051
ENERGY: 900000 2.5024 7.1434 3.4273 0.0000 -10759.3650 1468.1485 0.0000 0.0000 1773.1977 -7504.9457 299.6855 -9278.1434 -7505.6243 301.4193 7.5760 117.0719 30726.1049 -316.4787 -218.5463
ENERGY: 1200000 2.4248 9.3952 0.9767 0.0000 -10708.1223 1396.3875 0.0000 0.0000 1759.7804 -7539.1578 297.4179 -9298.9382 -7513.0340 300.5285 -654.7618 -575.5830 30838.6670 -221.8608 -131.7853
ENERGY: 1500000 0.7938 8.4317 1.7071 0.0000 -10725.0392 1399.6928 0.0000 0.0000 1720.9716 -7593.4421 290.8589 -9314.4137 -7522.5623 300.2304 -645.9190 -570.2378 30862.1600 -186.9508 -97.2526
TCL: Running FEP window  13: Lambda1 0.6    Lambda2 0.65   [dLambda 0.050000000000000044]
TCL: Setting parameter firsttimestep to 0
TCL: Setting parameter alchLambda to 0.6
Info: NONBONDED TABLE R-SQUARED SPACING: 0.0625
Info: NONBONDED TABLE SIZE: 705 POINTS
TCL: Setting parameter alchLambda2 to 0.65
Info: NONBONDED TABLE R-SQUARED SPACING: 0.0625
Info: NONBONDED TABLE SIZE: 705 POINTS
TCL: Running for 1500000 steps
ETITLE: TS BOND ANGLE DIHED IMPRP ELECT VDW BOUNDARY MISC KINETIC TOTAL TEMP POTENTIAL TOTALAVG TEMPAVG PRESSURE GPRESSURE VOLUME PRESSAVG GPRESSAVG
ENERGY: 0 0.7938 8.4317 1.7071 0.0000 -10724.9851 1400.0915 0.0000 0.0000 1720.0906 -7593.8703 290.7100 -9313.9609 -7593.8703 290.7100 -643.3349 -559.4809 30862.1600 -643.3349 -559.4809
ENERGY: 300000 1.1142 14.6404 3.5994 0.0000 -10774.6286 1463.0180 0.0000 0.0000 1790.5163 -7501.7403 302.6125 -9292.2566 -7552.2870 299.4198 -35.8572 28.0956 30771.1441 -13.1243 67.4678
ENERGY: 600000 2.8576 15.1746 0.6098 0.0000 -10631.8576 1386.5779 0.0000 0.0000 1791.2981 -7435.3396 302.7447 -9226.6376 -7533.4767 300.2666 -641.7602 -594.1378 30879.3826 159.0356 230.4145
ENERGY: 900000 0.5487 8.7302 2.4102 0.0000 -10749.7217 1462.1634 0.0000 0.0000 1761.2057 -7514.6636 297.6588 -9275.8692 -7536.1567 300.1886 253.6061 272.0382 30456.5933 106.1224 170.3685
ENERGY: 1200000 3.5785 14.7143 3.7340 0.0000 -10855.4844 1534.2768 0.0000 0.0000 1743.8515 -7555.3293 294.7258 -9299.1807 -7532.6537 299.7423 350.4414 401.2760 30896.3330 -14.8907 47.8680
ENERGY: 1500000 2.6657 5.5988 3.6357 0.0000 -10773.7069 1458.7612 0.0000 0.0000 1777.1806 -7525.8650 300.3587 -9303.0456 -7527.0529 300.6116 92.3215 174.3000 30336.7186 -27.8117 39.9139
TCL: Running FEP window  14: Lambda1 0.65   Lambda2 0.7000000000000001 [dLambda 0.050000000000000044]
TCL: Setting parameter firsttimestep to 0
TCL: Setting parameter alchLambda to 0.65
Info: NONBONDED TABLE R-SQUARED SPACING: 0.0625
Info: NONBONDED TABLE SIZE: 705 POINTS
TCL: Setting parameter alchLambda2 to 0.7000000000000001
Info: NONBONDED TABLE R-SQUARED SPACING: 0.0625
Info: NONBONDED TABLE SIZE: 705 POINTS
TCL: Running for 1500000 steps
ETITLE: TS BOND ANGLE DIHED IMPRP ELECT VDW BOUNDARY MISC KINETIC TOTAL TEMP POTENTIAL TOTALAVG TEMPAVG PRESSURE GPRESSURE VOLUME PRESSAVG GPRESSAVG
ENERGY: 0 2.6657 5.5988 3.6357 0.0000 -10774.1705 1458.5002 0.0000 0.0000 1776.3328 -7527.4374 300.2154 -9303.7702 -7527.4374 300.2154 90.2204 176.1470 30336.7186 90.2204 176.1470
ENERGY: 300000 0.4401 12.7362 1.1408 0.0000 -10644.1060 1405.7669 0.0000 0.0000 1795.0062 -7429.0160 303.3714 -9224.0222 -7481.1205 300.6070 -158.2545 -30.8009 30590.4601 -22.7984 49.1621
ENERGY: 600000 2.1918 8.0416 3.7916 0.0000 -10709.3414 1459.1447 0.0000 0.0000 1838.8275 -7397.3442 310.7775 -9236.1717 -7451.4456 302.8087 -67.0608 78.4288 30889.9593 -223.7455 -161.1953
ENERGY: 900000 3.2999 13.0135 1.9411 0.0000 -10712.8620 1424.4850 0.0000 0.0000 1812.6636 -7457.4589 306.3556 -9270.1225 -7475.2085 301.1140 -192.8725 -101.0417 30742.6918 -305.0059 -239.1107
ENERGY: 1200000 2.1764 12.0430 2.0039 0.0000 -10710.4475 1427.2628 0.0000 0.0000 1767.8774 -7499.0840 298.7864 -9266.9615 -7478.4780 300.7736 -168.7683 -84.7873 30536.9818 -357.5788 -289.0051
ENERGY: 1500000 1.9144 12.5145 2.0163 0.0000 -10758.8839 1416.7016 0.0000 0.0000 1728.1995 -7597.5376 292.0804 -9325.7371 -7493.7994 300.6081 -91.1585 2.7277 30241.8569 -238.4474 -171.6981
TCL: Running FEP window  15: Lambda1 0.7000000000000001 Lambda2 0.7500000000000001 [dLambda 0.050000000000000044]
TCL: Setting parameter firsttimestep to 0
TCL: Setting parameter alchLambda to 0.7000000000000001
Info: NONBONDED TABLE R-SQUARED SPACING: 0.0625
Info: NONBONDED TABLE SIZE: 705 POINTS
TCL: Setting parameter alchLambda2 to 0.7500000000000001
Info: NONBONDED TABLE R-SQUARED SPACING: 0.0625
Info: NONBONDED TABLE SIZE: 705 POINTS
TCL: Running for 1500000 steps
ETITLE: TS BOND ANGLE DIHED IMPRP ELECT VDW BOUNDARY MISC KINETIC TOTAL TEMP POTENTIAL TOTALAVG TEMPAVG PRESSURE GPRESSURE VOLUME PRESSAVG GPRESSAVG
ENERGY: 0 1.9144 12.5145 2.0163 0.0000 -10760.3693 1416.9258 0.0000 0.0000 1727.2919 -7599.7064 291.9271 -9326.9983 -7599.7064 291.9271 -82.1243 12.1740 30241.8569 -82.1243 12.1740
ENERGY: 300000 1.3303 4.5324 0.9016 0.0000 -10754.3344 1397.5292 0.0000 0.0000 1745.1710 -7604.8699 294.9488 -9350.0409 -7544.3373 296.0282 -355.4732 -371.5270 30271.2656 -297.4690 -235.2498
ENERGY: 600000 2.4582 10.6112 2.5402 0.0000 -10896.3543 1577.2726 0.0000 0.0000 1764.1266 -7539.3455 298.1524 -9303.4722 -7525.3515 296.8358 1010.1951 1081.4547 30357.8706 30.3575 89.1699
ENERGY: 900000 3.3059 7.9945 1.8857 0.0000 -10760.6453 1424.1740 0.0000 0.0000 1779.8721 -7543.4131 300.8136 -9323.2852 -7521.7473 297.8142 -221.1637 -91.9947 30400.7878 44.0427 114.3101
ENERGY: 1200000 0.4644 13.2358 2.4167 0.0000 -10672.2800 1406.9764 0.0000 0.0000 1755.8795 -7493.3071 296.7586 -9249.1867 -7511.2748 298.3805 -103.6741 -61.1355 30667.6673 6.5971 80.7649
ENERGY: 1500000 2.0857 4.4700 2.0704 0.0000 -10958.3535 1562.6130 0.0000 0.0000 1744.3974 -7642.7170 294.8180 -9387.1144 -7521.6169 298.8951 692.5452 714.1021 30467.8799 10.3859 77.9521
TCL: Running FEP window  16: Lambda1 0.7500000000000001 Lambda2 0.8000000000000002 [dLambda 0.050000000000000044]
TCL: Setting parameter firsttimestep to 0
TCL: Setting parameter alchLambda to 0.7500000000000001
Info: NONBONDED TABLE R-SQUARED SPACING: 0.0625
Info: NONBONDED TABLE SIZE: 705 POINTS
TCL: Setting parameter alchLambda2 to 0.8000000000000002
Info: NONBONDED TABLE R-SQUARED SPACING: 0.0625
Info: NONBONDED TABLE SIZE: 705 POINTS
TCL: Running for 1500000 steps
ETITLE: TS BOND ANGLE DIHED IMPRP ELECT VDW BOUNDARY MISC KINETIC TOTAL TEMP POTENTIAL TOTALAVG TEMPAVG PRESSURE GPRESSURE VOLUME PRESSAVG GPRESSAVG
ENERGY: 0 2.0857 4.4700 2.0704 0.0000 -10959.4414 1563.5083 0.0000 0.0000 1743.4889 -7643.8181 294.6645 -9387.3070 -7643.8181 294.6645 653.8551 730.5168 30467.8799 653.8551 730.5168
ENERGY: 300000 0.1687 5.9210 1.2120 0.0000 -10784.2384 1460.0606 0.0000 0.0000 1814.6118 -7502.2643 306.6849 -9316.8761 -7528.6623 302.9075 178.5523 247.4862 30472.1487 383.9398 441.0473
ENERGY: 600000 0.8456 7.6175 2.0292 0.0000 -10710.6464 1428.2079 0.0000 0.0000 1770.6337 -7501.3126 299.2522 -9271.9463 -7512.3581 302.6508 -101.4267 -26.1061 30645.8126 276.8411 332.8051
ENERGY: 900000 1.6817 7.5216 2.0548 0.0000 -10691.1018 1369.1026 0.0000 0.0000 1798.6433 -7512.0978 303.9861 -9310.7411 -7494.9136 302.5676 -677.9956 -675.5332 30962.9817 63.0628 109.0424
ENERGY: 1200000 1.2165 12.6224 2.0129 0.0000 -10703.9314 1417.5916 0.0000 0.0000 1764.4637 -7506.0243 298.2094 -9270.4879 -7497.0301 302.1318 -111.0034 3.3482 30312.5109 83.2762 138.8002
ENERGY: 1500000 1.6006 6.8052 4.1210 0.0000 -10800.7793 1454.3082 0.0000 0.0000 1791.1113 -7542.8329 302.7131 -9333.9443 -7503.5028 301.4214 175.9677 181.2512 30483.2689 106.1688 157.3443
TCL: Running FEP window  17: Lambda1 0.8000000000000002 Lambda2 0.8500000000000002 [dLambda 0.050000000000000044]
TCL: Setting parameter firsttimestep to 0
TCL: Setting parameter alchLambda to 0.8000000000000002
Info: NONBONDED TABLE R-SQUARED SPACING: 0.0625
Info: NONBONDED TABLE SIZE: 705 POINTS
TCL: Setting parameter alchLambda2 to 0.8500000000000002
Info: NONBONDED TABLE R-SQUARED SPACING: 0.0625
Info: NONBONDED TABLE SIZE: 705 POINTS
TCL: Running for 1500000 steps
ETITLE: TS BOND ANGLE DIHED IMPRP ELECT VDW BOUNDARY MISC KINETIC TOTAL TEMP POTENTIAL TOTALAVG TEMPAVG PRESSURE GPRESSURE VOLUME PRESSAVG GPRESSAVG
ENERGY: 0 1.6006 6.8052 4.1210 0.0000 -10801.6564 1454.4237 0.0000 0.0000 1790.2360 -7544.4699 302.5652 -9334.7059 -7544.4699 302.5652 111.6873 194.9859 30483.2689 111.6873 194.9859
ENERGY: 300000 3.2652 11.1601 1.7316 0.0000 -10734.0132 1444.0008 0.0000 0.0000 1710.9255 -7562.9299 289.1610 -9273.8555 -7538.3391 298.4811 14.3505 71.3093 30579.3953 -69.7306 -23.3217
ENERGY: 600000 1.4532 9.9454 1.1617 0.0000 -10916.3732 1558.5959 0.0000 0.0000 1711.1414 -7634.0756 289.1975 -9345.2170 -7562.2734 296.7403 562.1271 667.8115 30700.3588 35.9204 96.5809
ENERGY: 900000 1.9172 12.1209 3.8654 0.0000 -10666.0629 1407.8742 0.0000 0.0000 1771.2337 -7469.0515 299.3536 -9240.2851 -7538.3179 297.4606 -253.5870 -179.6284 30864.8556 34.9120 92.2398
ENERGY: 1200000 0.7888 11.8426 1.2716 0.0000 -10749.0316 1448.4460 0.0000 0.0000 1718.5492 -7568.1333 290.4495 -9286.6825 -7533.5817 297.4716 -87.4034 -8.4293 30962.3778 39.4870 102.5396
ENERGY: 1500000 2.0110 9.3217 2.9697 0.0000 -10802.2491 1461.9168 0.0000 0.0000 1789.9817 -7536.0481 302.5222 -9326.0298 -7529.3101 297.7939 76.4837 199.5942 30217.7077 75.9134 138.0686
TCL: Running FEP window  18: Lambda1 0.8500000000000002 Lambda2 0.9000000000000002 [dLambda 0.050000000000000044]
TCL: Setting parameter firsttimestep to 0
TCL: Setting parameter alchLambda to 0.8500000000000002
Info: NONBONDED TABLE R-SQUARED SPACING: 0.0625
Info: NONBONDED TABLE SIZE: 705 POINTS
TCL: Setting parameter alchLambda2 to 0.9000000000000002
Info: NONBONDED TABLE R-SQUARED SPACING: 0.0625
Info: NONBONDED TABLE SIZE: 705 POINTS
TCL: Running for 1500000 steps
ETITLE: TS BOND ANGLE DIHED IMPRP ELECT VDW BOUNDARY MISC KINETIC TOTAL TEMP POTENTIAL TOTALAVG TEMPAVG PRESSURE GPRESSURE VOLUME PRESSAVG GPRESSAVG
ENERGY: 0 2.0110 9.3217 2.9697 0.0000 -10802.7897 1462.3336 0.0000 0.0000 1789.0792 -7537.0746 302.3696 -9326.1538 -7537.0746 302.3696 118.8464 217.3669 30217.7077 118.8464 217.3669
ENERGY: 300000 1.3040 7.1490 1.1860 0.0000 -10776.6746 1502.9352 0.0000 0.0000 1768.0605 -7496.0399 298.8173 -9264.1004 -7514.5411 298.5302 573.7011 649.4109 30763.3343 179.2850 233.5058
ENERGY: 600000 2.3011 10.2296 2.4590 0.0000 -10780.1165 1424.3709 0.0000 0.0000 1780.5887 -7560.1672 300.9347 -9340.7559 -7509.4124 300.0468 -386.4541 -287.1983 30964.0669 107.9777 173.7619
ENERGY: 900000 1.0042 8.9232 1.9596 0.0000 -10725.4521 1396.9432 0.0000 0.0000 1763.9493 -7552.6726 298.1225 -9316.6219 -7506.6430 301.2520 -235.5409 -58.2285 30285.2990 16.7919 89.9545
ENERGY: 1200000 1.2373 9.8338 3.1263 0.0000 -10814.3800 1543.5176 0.0000 0.0000 1762.9681 -7493.6970 297.9566 -9256.6651 -7513.5225 300.8726 778.4000 849.2548 30396.1697 79.9474 152.4912
ENERGY: 1500000 1.5441 7.1425 4.7962 0.0000 -10576.9314 1397.4894 0.0000 0.0000 1762.0929 -7403.8662 297.8087 -9165.9592 -7511.5583 300.1989 -158.4879 -109.4459 31070.0075 64.7918 134.6146
TCL: Running FEP window  19: Lambda1 0.9000000000000002 Lambda2 0.9500000000000003 [dLambda 0.050000000000000044]
TCL: Setting parameter firsttimestep to 0
TCL: Setting parameter alchLambda to 0.9000000000000002
Info: NONBONDED TABLE R-SQUARED SPACING: 0.0625
Info: NONBONDED TABLE SIZE: 705 POINTS
TCL: Setting parameter alchLambda2 to 0.9500000000000003
Info: NONBONDED TABLE R-SQUARED SPACING: 0.0625
Info: NONBONDED TABLE SIZE: 705 POINTS
TCL: Running for 1500000 steps
ETITLE: TS BOND ANGLE DIHED IMPRP ELECT VDW BOUNDARY MISC KINETIC TOTAL TEMP POTENTIAL TOTALAVG TEMPAVG PRESSURE GPRESSURE VOLUME PRESSAVG GPRESSAVG
ENERGY: 0 1.5441 7.1425 4.7962 0.0000 -10577.3655 1397.9634 0.0000 0.0000 1761.1658 -7404.7534 297.6520 -9165.9192 -7404.7534 297.6520 -178.7192 -86.3212 31070.0075 -178.7192 -86.3212
ENERGY: 300000 2.0457 8.9838 2.1998 0.0000 -10630.4615 1347.9007 0.0000 0.0000 1746.8864 -7522.4451 295.2387 -9269.3315 -7516.0408 296.7933 -936.1625 -926.3328 31071.3903 -203.1044 -130.9642
ENERGY: 600000 2.5066 9.7855 5.1657 0.0000 -10856.5009 1549.1358 0.0000 0.0000 1788.9367 -7500.9707 302.3456 -9289.9073 -7518.4098 298.9967 735.8630 851.9970 30497.3798 158.7693 230.5095
ENERGY: 900000 1.0064 7.5383 0.5617 0.0000 -10716.4587 1431.4074 0.0000 0.0000 1803.6039 -7472.3411 304.8244 -9275.9450 -7510.5380 300.0675 -93.8159 -63.3175 30613.8278 45.0777 109.5741
ENERGY: 1200000 1.9446 7.2697 0.8989 0.0000 -10913.6231 1497.6803 0.0000 0.0000 1729.8445 -7675.9851 292.3585 -9405.8297 -7524.7911 299.1558 59.7933 113.1625 30609.1726 19.0854 80.7012
ENERGY: 1500000 3.0139 11.2794 3.3791 0.0000 -10776.4557 1419.2195 0.0000 0.0000 1753.1054 -7586.4585 296.2898 -9339.5638 -7537.3846 298.5306 -272.8214 -237.7203 30331.6108 -12.6739 48.5383
TCL: Running FEP window  20: Lambda1 0.9500000000000003 Lambda2 1.0    [dLambda 0.04999999999999971]
TCL: Setting parameter firsttimestep to 0
TCL: Setting parameter alchLambda to 0.9500000000000003
Info: NONBONDED TABLE R-SQUARED SPACING: 0.0625
Info: NONBONDED TABLE SIZE: 705 POINTS
TCL: Setting parameter alchLambda2 to 1.0
Info: NONBONDED TABLE R-SQUARED SPACING: 0.0625
Info: NONBONDED TABLE SIZE: 705 POINTS
TCL: Running for 1500000 steps
ETITLE: TS BOND ANGLE DIHED IMPRP ELECT VDW BOUNDARY MISC KINETIC TOTAL TEMP POTENTIAL TOTALAVG TEMPAVG PRESSURE GPRESSURE VOLUME PRESSAVG GPRESSAVG
ENERGY: 0 3.0139 11.2794 3.3791 0.0000 -10777.2834 1420.4719 0.0000 0.0000 1752.2327 -7586.9064 296.1423 -9339.1391 -7586.9064 296.1423 -302.3694 -208.5451 30331.6108 -302.3694 -208.5451
ENERGY: 300000 2.1176 10.4513 2.8706 0.0000 -10667.6949 1419.5750 0.0000 0.0000 1761.2206 -7471.4598 297.6613 -9232.6804 -7516.8661 300.8296 -106.4757 -51.8817 31057.6147 101.1120 193.1993
ENERGY: 600000 0.8790 12.3421 3.2160 0.0000 -10640.4408 1371.1163 0.0000 0.0000 1766.6316 -7486.2557 298.5758 -9252.8874 -7506.4344 301.0149 -409.9763 -333.8990 30683.4875 61.4043 140.3629
ENERGY: 900000 1.1602 8.1243 1.4076 0.0000 -10889.5436 1496.2043 0.0000 0.0000 1777.1832 -7605.4640 300.3591 -9382.6472 -7524.7330 300.9300 396.5122 472.5301 30171.8981 113.9491 182.4021
ENERGY: 1200000 1.8103 15.2292 0.9025 0.0000 -10804.3558 1495.3269 0.0000 0.0000 1762.1058 -7528.9809 297.8109 -9291.0867 -7525.8289 300.3232 582.4114 656.3026 30368.9973 115.8297 187.9371
ENERGY: 1500000 3.2251 8.1351 2.8577 0.0000 -10683.8093 1442.4033 0.0000 0.0000 1717.4188 -7509.7693 290.2584 -9227.1881 -7523.3793 299.7217 146.2908 212.8064 30473.6520 57.1907 122.6489
TCL: Exiting due to exit command.
