Info: SIMULATION PARAMETERS:
Info: TIMESTEP               2
Info: NUMBER OF STEPS        0
Info: STEPS PER CYCLE        10
Info: PERIODIC CELL BASIS 1  29.0812 0 0
Info: PERIODIC CELL BASIS 2  0 32.1663 0
Info: PERIODIC CELL BASIS 3  0 0 32.8228
Info: PERIODIC CELL CENTER   0 0 0
Info: WRAPPING WATERS AROUND PERIODIC BOUNDARIES ON OUTPUT.
Info: WRAPPING ALL CLUSTERS AROUND PERIODIC BOUNDARIES ON OUTPUT.
Info: FIRST LDB TIMESTEP     50
Info: LAST LDB TIMESTEP     -1
Info: HOM BACKGROUND SCALING 1
Info: PME BACKGROUND SCALING 1
Info: MIN ATOMS PER PATCH    40
Info: EMPTY PATCH LOAD       40 ATOMS
Info: VELOCITY FILE          mobley_6198745_equil.vel
Info: CENTER OF MASS MOVING INITIALLY? NO
Info: DIELECTRIC             1
Info: EXCLUDE                SCALED ONE-FOUR
Info: 1-4 ELECTROSTATICS SCALED BY 0.833333
Info: MODIFIED 1-4 VDW PARAMETERS WILL BE USED
Info: DCD FILENAME           mobley_6198745_prod.dcd
Info: DCD FREQUENCY          100000
Info: DCD FIRST STEP         100000
Info: DCD FILE WILL CONTAIN UNIT CELL DATA
Info: XST FILENAME           mobley_6198745_prod.xst
Info: XST FREQUENCY          100000
Info: NO VELOCITY DCD OUTPUT
Info: NO FORCE DCD OUTPUT
Info: OUTPUT FILENAME        mobley_6198745_prod
Info: BINARY OUTPUT FILES WILL BE USED
Info: RESTART FILENAME       mobley_6198745_prod.restart
Info: RESTART FREQUENCY      100000
Info: BINARY RESTART FILES WILL BE USED
Info: CUTOFF                 9
Info: PAIRLIST DISTANCE      11
Info: PAIRLIST SHRINK RATE   0.01
Info: PAIRLIST GROW RATE     0.01
Info: PAIRLIST TRIGGER       0.3
Info: PAIRLISTS PER CYCLE    2
Info: PAIRLISTS ENABLED
Info: MARGIN                 2
Info: HYDROGEN GROUP CUTOFF  2.5
Info: PATCH DIMENSION        15.5
Info: ENERGY OUTPUT STEPS    100000
Info: ENERGY EVALUATION STEPS    100000
Info: OUTPUT ENERGY PRECISION 4
Info: CROSSTERM ENERGY INCLUDED IN DIHEDRAL
Info: TIMING OUTPUT STEPS    1000000
Info: PRESSURE OUTPUT STEPS  100000
Info: ALCHEMICAL FEP ON
Info: FEP CURRENT LAMBDA VALUE     0
Info: FEP COMPARISON LAMBDA VALUE  0.05
Info: FEP INTRA-ALCHEMICAL NON-BONDED INTERACTIONS WILL BE RETAINED
Info: FEP INTRA-ALCHEMICAL BONDED INTERACTIONS WILL BE RETAINED
Info: FEP VDW SHIFTING COEFFICIENT 5
Info: FEP ELEC. ACTIVE FOR ANNIHILATED PARTICLES BETWEEN LAMBDA = 0 AND LAMBDA = 0.5
Info: FEP ELEC. ACTIVE FOR EXNIHILATED PARTICLES BETWEEN LAMBDA = 0.5 AND LAMBDA = 1
Info: FEP VDW ACTIVE FOR ANNIHILATED PARTICLES BETWEEN LAMBDA = 0 AND LAMBDA = 1
Info: FEP VDW ACTIVE FOR EXNIHILATED PARTICLES BETWEEN LAMBDA = 0 AND LAMBDA = 1
Info: FEP BOND ACTIVE FOR ANNIHILATED PARTICLES BETWEEN LAMBDA = 1 AND LAMBDA = 1
Info: FEP BOND ACTIVE FOR EXNIHILATED PARTICLES BETWEEN LAMBDA = 0 AND LAMBDA = 0
Info: LANGEVIN DYNAMICS ACTIVE
Info: LANGEVIN TEMPERATURE   300
Info: LANGEVIN USING BBK INTEGRATOR
Info: LANGEVIN DAMPING COEFFICIENT IS 1 INVERSE PS
Info: LANGEVIN DYNAMICS APPLIED TO HYDROGENS
Info: LANGEVIN PISTON PRESSURE CONTROL ACTIVE
Info:        TARGET PRESSURE IS 1.01325 BAR
Info:     OSCILLATION PERIOD IS 50 FS
Info:             DECAY TIME IS 25 FS
Info:     PISTON TEMPERATURE IS 300 K
Info:       PRESSURE CONTROL IS GROUP-BASED
Info:    INITIAL STRAIN RATE IS 0.000351419 0.000351419 0.000351419
Info:       CELL FLUCTUATION IS ISOTROPIC
Info: PARTICLE MESH EWALD (PME) ACTIVE
Info: PME TOLERANCE               1e-06
Info: PME EWALD COEFFICIENT       0.348832
Info: PME INTERPOLATION ORDER     4
Info: PME GRID DIMENSIONS         32 36 36
Info: PME MAXIMUM GRID SPACING    1
Info: PME CALCULATION WILL BE PERFORMED ON GPU
Info: FULL ELECTROSTATIC EVALUATION FREQUENCY      2
Info: USING VERLET I (r-RESPA) MTS SCHEME.
Info: C1 SPLITTING OF LONG RANGE ELECTROSTATICS
Info: PLACING ATOMS IN PATCHES BY HYDROGEN GROUPS
Info: RIGID BONDS TO HYDROGEN : ALL
Info:         ERROR TOLERANCE : 1e-08
Info:          MAX ITERATIONS : 100
Info: RIGID WATER USING SETTLE ALGORITHM
Info: RANDOM NUMBER SEED     1744036373
Info: USE HYDROGEN BONDS?    NO
Info: Using AMBER format force field!
Info: AMBER PARM FILE        mobley_6198745.prmtop
Info: COORDINATE PDB         mobley_6198745.pdb
Info: Exclusions will be read from PARM file!
Info: SCNB (VDW SCALING)     2
Info: USING ARITHMETIC MEAN TO COMBINE L-J SIGMA PARAMETERS
Info: BINARY COORDINATES     mobley_6198745_equil.coor
Info: SUMMARY OF PARAMETERS:
Info: 9 BONDS
Info: 11 ANGLES
Info:   11 HARMONIC
Info:   0 COSINE-BASED
Info: 17 DIHEDRAL
Info: 0 IMPROPER
Info: 0 CROSSTERM
Info: 0 VDW
Info: 36 VDW_PAIRS
Info: 0 NBTHOLE_PAIRS
Info: To read alchdata from file: mobley_6198745.pdb
Info: To read alchflag data from column: 5
Info: STRUCTURE SUMMARY:
Info: 2984 ATOMS
Info: 2983 BONDS
Info: 48 ANGLES
Info: 93 DIHEDRALS
Info: 0 IMPROPERS
Info: 0 CROSSTERMS
Info: 3082 EXCLUSIONS
Info: 2969 RIGID BONDS
Info: ALCH: 0 ATOMS TO DISAPPEAR IN FINAL STATE
Info: ALCH: 29 ATOMS TO APPEAR IN FINAL STATE
Info: 5983 DEGREES OF FREEDOM
Info: 1000 HYDROGEN GROUPS
Info: 4 ATOMS IN LARGEST HYDROGEN GROUP
Info: 1000 MIGRATION GROUPS
Info: 4 ATOMS IN LARGEST MIGRATION GROUP
Info: TOTAL MASS = 17964 amu
Info: TOTAL CHARGE = 0.000199988 e
Info: MASS DENSITY = 0.971567 g/cm^3
Info: ATOM DENSITY = 0.0971874 atoms/A^3
Info: ADDED 0 IMPLICIT EXCLUSIONS
Info: NONBONDED TABLE R-SQUARED SPACING: 0.0625
Info: NONBONDED TABLE SIZE: 705 POINTS
Info: REMOVING COM VELOCITY -0.17603 -0.108139 -0.0640899
Info: Use 3D box decompostion in PME FFT.
Info: Updated CUDA force table with 4096 elements.
Info: Updated CUDA LJ table with 8 x 8 elements.
Info: Found 30 unique exclusion lists needing 108 bytes
TCL: Running for 1500000 steps
ETITLE: TS BOND ANGLE DIHED IMPRP ELECT VDW BOUNDARY MISC KINETIC TOTAL TEMP POTENTIAL TOTALAVG TEMPAVG PRESSURE GPRESSURE VOLUME PRESSAVG GPRESSAVG
ENERGY: 0 4.1397 17.6436 18.4708 0.0000 -10839.2336 1502.8274 0.0000 0.0000 1805.9632 -7490.1889 303.7948 -9296.1521 -7490.1889 303.7948 446.3447 531.1986 30703.5605 446.3447 531.1986
ENERGY: 300000 9.6166 8.9839 16.4890 0.0000 -10830.9080 1462.9165 0.0000 0.0000 1712.8998 -7620.0023 288.1399 -9332.9020 -7547.4557 298.4860 -119.7933 -1.5140 30624.2847 -170.6189 -67.0114
ENERGY: 600000 5.9050 10.5174 21.3500 0.0000 -10731.1206 1427.6572 0.0000 0.0000 1783.2668 -7482.4242 299.9768 -9265.6910 -7544.4435 300.3461 64.2171 85.4684 30625.0448 -157.2558 -75.8824
ENERGY: 900000 5.1715 12.4724 18.8136 0.0000 -10903.4266 1490.4534 0.0000 0.0000 1738.0786 -7638.4370 292.3754 -9376.5156 -7561.5227 299.5642 417.4293 496.0555 29724.6493 -6.2316 66.0092
ENERGY: 1200000 6.5025 13.4425 16.1999 0.0000 -10720.2634 1379.4172 0.0000 0.0000 1778.8659 -7525.8355 299.2365 -9304.7015 -7555.5650 299.5351 -768.2915 -660.8418 31033.8508 -2.3891 76.5886
ENERGY: 1500000 3.0895 10.8700 16.3908 0.0000 -10873.5012 1406.0335 0.0000 0.0000 1742.0926 -7695.0247 293.0506 -9437.1173 -7563.7541 299.3591 -805.5763 -724.1541 30613.5100 -87.2766 -9.0697
TCL: Running FEP window   2: Lambda1 0.05   Lambda2 0.1    [dLambda 0.05  ]
TCL: Setting parameter firsttimestep to 0
TCL: Setting parameter alchLambda to 0.05
Info: NONBONDED TABLE R-SQUARED SPACING: 0.0625
Info: NONBONDED TABLE SIZE: 705 POINTS
TCL: Setting parameter alchLambda2 to 0.1
Info: NONBONDED TABLE R-SQUARED SPACING: 0.0625
Info: NONBONDED TABLE SIZE: 705 POINTS
TCL: Running for 1500000 steps
ETITLE: TS BOND ANGLE DIHED IMPRP ELECT VDW BOUNDARY MISC KINETIC TOTAL TEMP POTENTIAL TOTALAVG TEMPAVG PRESSURE GPRESSURE VOLUME PRESSAVG GPRESSAVG
ENERGY: 0 3.0895 10.8700 16.3908 0.0000 -10873.5001 1410.9252 0.0000 0.0000 1741.1667 -7691.0579 292.8948 -9432.2246 -7691.0579 292.8948 -786.9484 -711.2780 30613.5100 -786.9484 -711.2780
ENERGY: 300000 2.4936 13.2567 17.4097 0.0000 -10894.9199 1489.3447 0.0000 0.0000 1795.5693 -7576.8458 302.0463 -9372.4151 -7622.3199 295.9472 327.5080 410.9093 30454.3497 -241.8613 -176.7246
ENERGY: 600000 4.7371 14.0110 18.6244 0.0000 -10813.1023 1456.7932 0.0000 0.0000 1821.0567 -7497.8799 306.3338 -9318.9367 -7596.4434 297.2539 -132.5812 -73.6071 30901.1605 -59.8205 15.5128
ENERGY: 900000 3.8869 13.2673 16.2103 0.0000 -10862.8327 1503.1544 0.0000 0.0000 1785.1271 -7541.1868 300.2898 -9326.3139 -7581.2661 298.5425 306.3135 381.9946 30691.4561 -27.1242 47.5148
ENERGY: 1200000 6.6907 17.8857 21.6025 0.0000 -10814.5669 1474.4954 0.0000 0.0000 1821.6637 -7472.2289 306.4359 -9293.8926 -7568.8241 299.7538 63.3226 123.5201 30606.0001 -47.7830 24.3960
ENERGY: 1500000 1.9789 14.3122 17.5117 0.0000 -11059.9102 1604.7331 0.0000 0.0000 1813.9514 -7607.4229 305.1385 -9421.3743 -7571.1739 299.7849 1162.7396 1209.9079 30206.9789 -7.3846 62.6660
TCL: Running FEP window   3: Lambda1 0.1    Lambda2 0.15000000000000002 [dLambda 0.05000000000000002]
TCL: Setting parameter firsttimestep to 0
TCL: Setting parameter alchLambda to 0.1
Info: NONBONDED TABLE R-SQUARED SPACING: 0.0625
Info: NONBONDED TABLE SIZE: 705 POINTS
TCL: Setting parameter alchLambda2 to 0.15000000000000002
Info: NONBONDED TABLE R-SQUARED SPACING: 0.0625
Info: NONBONDED TABLE SIZE: 705 POINTS
TCL: Running for 1500000 steps
ETITLE: TS BOND ANGLE DIHED IMPRP ELECT VDW BOUNDARY MISC KINETIC TOTAL TEMP POTENTIAL TOTALAVG TEMPAVG PRESSURE GPRESSURE VOLUME PRESSAVG GPRESSAVG
ENERGY: 0 1.9789 14.3123 17.5117 0.0000 -11059.9102 1610.0865 0.0000 0.0000 1813.0959 -7602.9251 304.9946 -9416.0209 -7602.9251 304.9946 1150.9368 1228.7239 30206.9789 1150.9368 1228.7239
ENERGY: 300000 3.9868 16.0100 18.4932 0.0000 -10661.2618 1392.7826 0.0000 0.0000 1812.9200 -7417.0692 304.9650 -9229.9893 -7547.0603 301.4582 76.7865 95.4958 30436.4187 341.8693 397.7019
ENERGY: 600000 8.8583 10.4637 18.7239 0.0000 -10845.1302 1469.6797 0.0000 0.0000 1857.6024 -7479.8021 312.4814 -9337.4045 -7540.0863 302.5452 241.9478 244.6914 30346.3292 221.4648 262.9831
ENERGY: 900000 4.5442 19.2099 19.8939 0.0000 -11009.2230 1475.7252 0.0000 0.0000 1801.1330 -7688.7168 302.9822 -9489.8498 -7569.5857 301.9078 -174.5658 -80.3607 30048.4859 130.3706 185.3699
ENERGY: 1200000 1.4969 9.6059 18.7618 0.0000 -10831.7372 1458.8385 0.0000 0.0000 1821.9814 -7521.0527 306.4893 -9343.0341 -7567.8859 300.8951 348.6237 400.3286 30245.8682 163.8447 218.3221
ENERGY: 1500000 7.4255 12.6341 21.1351 0.0000 -10705.3473 1329.6998 0.0000 0.0000 1741.1161 -7593.3368 292.8863 -9334.4529 -7565.9938 300.6538 -1248.9703 -1239.4967 30635.1517 30.8784 80.7423
TCL: Running FEP window   4: Lambda1 0.15000000000000002 Lambda2 0.2    [dLambda 0.04999999999999999]
TCL: Setting parameter firsttimestep to 0
TCL: Setting parameter alchLambda to 0.15000000000000002
Info: NONBONDED TABLE R-SQUARED SPACING: 0.0625
Info: NONBONDED TABLE SIZE: 705 POINTS
TCL: Setting parameter alchLambda2 to 0.2
Info: NONBONDED TABLE R-SQUARED SPACING: 0.0625
Info: NONBONDED TABLE SIZE: 705 POINTS
TCL: Running for 1500000 steps
ETITLE: TS BOND ANGLE DIHED IMPRP ELECT VDW BOUNDARY MISC KINETIC TOTAL TEMP POTENTIAL TOTALAVG TEMPAVG PRESSURE GPRESSURE VOLUME PRESSAVG GPRESSAVG
ENERGY: 0 7.4255 12.6341 21.1351 0.0000 -10705.3467 1330.9056 0.0000 0.0000 1740.2002 -7593.0463 292.7323 -9333.2465 -7593.0463 292.7323 -1313.1046 -1229.6231 30635.1517 -1313.1046 -1229.6231
ENERGY: 300000 2.9230 18.4186 14.6725 0.0000 -10816.7504 1460.0605 0.0000 0.0000 1735.9524 -7584.7235 292.0177 -9320.6759 -7575.6237 296.0555 53.0152 75.3170 30816.7495 -202.2492 -137.9892
ENERGY: 600000 3.8767 9.3886 16.6428 0.0000 -10600.9752 1353.0769 0.0000 0.0000 1721.0785 -7496.9117 289.5157 -9217.9902 -7569.8437 295.6361 -380.9556 -376.4054 30886.2260 -121.4477 -45.4511
ENERGY: 900000 6.2549 15.6994 15.3816 0.0000 -11034.2197 1529.3823 0.0000 0.0000 1798.0002 -7669.5012 302.4552 -9467.5014 -7575.9855 298.2777 324.9109 373.9000 30648.1429 21.9202 95.4573
ENERGY: 1200000 4.6357 16.5476 16.4054 0.0000 -10726.2514 1377.2511 0.0000 0.0000 1790.2623 -7521.1493 301.1536 -9311.4116 -7573.5305 299.0452 -565.0027 -542.6745 30449.3523 -99.6683 -36.1703
ENERGY: 1500000 3.6632 10.4472 19.5407 0.0000 -10781.5346 1463.9458 0.0000 0.0000 1781.2791 -7502.6586 299.6425 -9283.9377 -7564.8867 299.4790 417.4082 425.2089 30450.2666 -136.5134 -79.2014
TCL: Running FEP window   5: Lambda1 0.2    Lambda2 0.25   [dLambda 0.04999999999999999]
TCL: Setting parameter firsttimestep to 0
TCL: Setting parameter alchLambda to 0.2
Info: NONBONDED TABLE R-SQUARED SPACING: 0.0625
Info: NONBONDED TABLE SIZE: 705 POINTS
TCL: Setting parameter alchLambda2 to 0.25
Info: NONBONDED TABLE R-SQUARED SPACING: 0.0625
Info: NONBONDED TABLE SIZE: 705 POINTS
TCL: Running for 1500000 steps
ETITLE: TS BOND ANGLE DIHED IMPRP ELECT VDW BOUNDARY MISC KINETIC TOTAL TEMP POTENTIAL TOTALAVG TEMPAVG PRESSURE GPRESSURE VOLUME PRESSAVG GPRESSAVG
ENERGY: 0 3.6632 10.4472 19.5407 0.0000 -10781.5358 1464.4398 0.0000 0.0000 1780.3852 -7503.0598 299.4921 -9283.4449 -7503.0598 299.4921 360.5810 434.1435 30450.2666 360.5810 434.1435
ENERGY: 300000 4.5978 16.2137 18.2883 0.0000 -10909.2299 1516.1916 0.0000 0.0000 1733.8809 -7620.0575 291.6692 -9353.9384 -7551.0847 297.5568 427.8877 483.0948 30453.7690 201.6136 261.8633
ENERGY: 600000 2.2171 9.6731 22.1134 0.0000 -10874.1065 1468.1685 0.0000 0.0000 1809.0620 -7562.8724 304.3160 -9371.9343 -7557.6439 301.3064 234.9247 355.8469 30420.4620 242.0550 321.8578
ENERGY: 900000 4.1142 16.1525 16.1394 0.0000 -10803.2216 1414.5093 0.0000 0.0000 1810.8249 -7541.4813 304.6126 -9352.3062 -7575.2989 299.9805 -548.3328 -439.3010 30987.8932 71.5582 142.4086
ENERGY: 1200000 6.6268 11.5493 18.0128 0.0000 -10767.9848 1427.9052 0.0000 0.0000 1790.9934 -7512.8973 301.2766 -9303.8907 -7562.2480 300.0247 -56.4096 45.2430 30611.3629 95.3983 159.8175
ENERGY: 1500000 6.6051 10.8363 17.8731 0.0000 -10643.1262 1341.8002 0.0000 0.0000 1807.7099 -7458.3016 304.0886 -9266.0115 -7554.9278 300.1359 -253.5788 -239.1887 30592.0038 63.6964 121.1452
TCL: Running FEP window   6: Lambda1 0.25   Lambda2 0.3    [dLambda 0.04999999999999999]
TCL: Setting parameter firsttimestep to 0
TCL: Setting parameter alchLambda to 0.25
Info: NONBONDED TABLE R-SQUARED SPACING: 0.0625
Info: NONBONDED TABLE SIZE: 705 POINTS
TCL: Setting parameter alchLambda2 to 0.3
Info: NONBONDED TABLE R-SQUARED SPACING: 0.0625
Info: NONBONDED TABLE SIZE: 705 POINTS
TCL: Running for 1500000 steps
ETITLE: TS BOND ANGLE DIHED IMPRP ELECT VDW BOUNDARY MISC KINETIC TOTAL TEMP POTENTIAL TOTALAVG TEMPAVG PRESSURE GPRESSURE VOLUME PRESSAVG GPRESSAVG
ENERGY: 0 6.6051 10.8363 17.8731 0.0000 -10643.1264 1341.2998 0.0000 0.0000 1806.8219 -7459.6901 303.9392 -9266.5121 -7459.6901 303.9392 -319.9418 -238.4784 30592.0038 -319.9418 -238.4784
ENERGY: 300000 7.0628 18.0699 16.2537 0.0000 -10896.9921 1469.0755 0.0000 0.0000 1741.2696 -7645.2606 292.9122 -9386.5302 -7570.5128 295.8392 39.5089 104.9295 30322.2804 -18.2401 57.4271
ENERGY: 600000 2.1129 11.2349 19.1818 0.0000 -10763.9646 1436.6635 0.0000 0.0000 1749.3960 -7545.3755 294.2792 -9294.7714 -7567.5941 295.6895 41.8635 96.0550 30836.6051 5.2807 78.5057
ENERGY: 900000 8.2049 10.9742 16.3718 0.0000 -10796.1655 1442.6140 0.0000 0.0000 1783.8217 -7534.1788 300.0702 -9318.0005 -7558.4493 297.9211 -19.6550 2.5045 30500.2739 101.3143 159.0761
ENERGY: 1200000 4.4139 10.1972 17.7237 0.0000 -10903.4902 1458.2533 0.0000 0.0000 1770.1022 -7642.8000 297.7623 -9412.9022 -7569.8607 298.2043 20.0434 124.1910 30201.0986 64.0703 129.0310
ENERGY: 1500000 2.3540 13.9718 19.1656 0.0000 -10803.2601 1429.1425 0.0000 0.0000 1807.8352 -7530.7910 304.1097 -9338.6262 -7572.5614 299.3383 -225.0906 -154.5474 30643.8073 -17.6356 41.0179
TCL: Running FEP window   7: Lambda1 0.3    Lambda2 0.35   [dLambda 0.04999999999999999]
TCL: Setting parameter firsttimestep to 0
TCL: Setting parameter alchLambda to 0.3
Info: NONBONDED TABLE R-SQUARED SPACING: 0.0625
Info: NONBONDED TABLE SIZE: 705 POINTS
TCL: Setting parameter alchLambda2 to 0.35
Info: NONBONDED TABLE R-SQUARED SPACING: 0.0625
Info: NONBONDED TABLE SIZE: 705 POINTS
TCL: Running for 1500000 steps
ETITLE: TS BOND ANGLE DIHED IMPRP ELECT VDW BOUNDARY MISC KINETIC TOTAL TEMP POTENTIAL TOTALAVG TEMPAVG PRESSURE GPRESSURE VOLUME PRESSAVG GPRESSAVG
ENERGY: 0 2.3540 13.9718 19.1656 0.0000 -10803.2615 1431.4547 0.0000 0.0000 1806.9192 -7529.3962 303.9556 -9336.3154 -7529.3962 303.9556 -215.1903 -129.9553 30643.8073 -215.1903 -129.9553
ENERGY: 300000 5.6974 15.8719 15.8689 0.0000 -10843.2436 1437.4711 0.0000 0.0000 1792.8086 -7575.5256 301.5819 -9368.3342 -7560.3921 299.8313 -8.8065 38.5717 30184.1075 29.3267 97.1704
ENERGY: 600000 3.3606 8.1919 15.3071 0.0000 -10713.1770 1409.9359 0.0000 0.0000 1822.6351 -7453.7464 306.5993 -9276.3815 -7537.8120 302.4927 -54.9823 -14.0231 30608.9412 -48.3276 13.7406
ENERGY: 900000 4.9009 14.9711 17.2383 0.0000 -10864.7801 1436.6203 0.0000 0.0000 1810.2052 -7580.8444 304.5083 -9391.0496 -7549.9439 302.3104 -253.3604 -180.7878 30630.2975 -28.4686 41.4650
ENERGY: 1200000 7.6825 17.2628 15.2558 0.0000 -10740.3061 1386.6627 0.0000 0.0000 1766.7365 -7546.7058 297.1961 -9313.4423 -7554.7540 301.7016 -510.4181 -450.5090 30638.6020 -39.4099 25.5832
ENERGY: 1500000 4.8694 10.8554 21.1818 0.0000 -10944.1598 1529.2752 0.0000 0.0000 1777.0475 -7600.9306 298.9306 -9377.9780 -7560.5593 301.7411 792.1487 833.5040 30105.9653 43.0501 101.7696
TCL: Running FEP window   8: Lambda1 0.35   Lambda2 0.39999999999999997 [dLambda 0.04999999999999999]
TCL: Setting parameter firsttimestep to 0
TCL: Setting parameter alchLambda to 0.35
Info: NONBONDED TABLE R-SQUARED SPACING: 0.0625
Info: NONBONDED TABLE SIZE: 705 POINTS
TCL: Setting parameter alchLambda2 to 0.39999999999999997
Info: NONBONDED TABLE R-SQUARED SPACING: 0.0625
Info: NONBONDED TABLE SIZE: 705 POINTS
TCL: Running for 1500000 steps
ETITLE: TS BOND ANGLE DIHED IMPRP ELECT VDW BOUNDARY MISC KINETIC TOTAL TEMP POTENTIAL TOTALAVG TEMPAVG PRESSURE GPRESSURE VOLUME PRESSAVG GPRESSAVG
ENERGY: 0 4.8693 10.8554 21.1818 0.0000 -10944.1601 1529.7968 0.0000 0.0000 1776.1966 -7601.2601 298.7875 -9377.4567 -7601.2601 298.7875 767.2644 845.5500 30105.9653 767.2644 845.5500
ENERGY: 300000 7.2025 11.3307 19.3757 0.0000 -10826.0534 1406.6903 0.0000 0.0000 1759.5720 -7621.8822 295.9909 -9381.4542 -7616.7259 297.1606 -493.2761 -421.9520 30434.3721 118.6323 180.2165
ENERGY: 600000 1.7372 13.7350 17.8202 0.0000 -10806.8586 1457.6349 0.0000 0.0000 1811.1823 -7504.7489 304.6727 -9315.9312 -7579.6201 299.5838 209.3223 244.2776 30487.4424 118.0926 162.1750
ENERGY: 900000 5.4028 17.3570 19.7329 0.0000 -10924.2659 1522.5214 0.0000 0.0000 1835.8736 -7523.3782 308.8262 -9359.2518 -7567.9690 299.1726 436.9160 492.0242 31056.2810 150.3747 203.6254
ENERGY: 1200000 4.5449 12.2917 18.3479 0.0000 -10778.2947 1435.5237 0.0000 0.0000 1812.6839 -7494.9025 304.9253 -9307.5864 -7569.7878 299.7515 -163.5725 -118.1242 30795.2919 99.3753 156.9244
ENERGY: 1500000 6.3621 14.5020 18.3727 0.0000 -10860.7113 1474.6102 0.0000 0.0000 1771.4446 -7575.4197 297.9881 -9346.8644 -7566.1825 299.8606 377.2431 409.3839 30324.8372 157.7477 212.3228
TCL: Running FEP window   9: Lambda1 0.39999999999999997 Lambda2 0.44999999999999996 [dLambda 0.04999999999999999]
TCL: Setting parameter firsttimestep to 0
TCL: Setting parameter alchLambda to 0.39999999999999997
Info: NONBONDED TABLE R-SQUARED SPACING: 0.0625
Info: NONBONDED TABLE SIZE: 705 POINTS
TCL: Setting parameter alchLambda2 to 0.44999999999999996
Info: NONBONDED TABLE R-SQUARED SPACING: 0.0625
Info: NONBONDED TABLE SIZE: 705 POINTS
TCL: Running for 1500000 steps
ETITLE: TS BOND ANGLE DIHED IMPRP ELECT VDW BOUNDARY MISC KINETIC TOTAL TEMP POTENTIAL TOTALAVG TEMPAVG PRESSURE GPRESSURE VOLUME PRESSAVG GPRESSAVG
ENERGY: 0 6.3622 14.5020 18.3727 0.0000 -10860.7096 1475.4268 0.0000 0.0000 1770.5736 -7575.4724 297.8416 -9346.0460 -7575.4724 297.8416 340.9215 423.1051 30324.8372 340.9215 423.1051
ENERGY: 300000 3.5762 11.6716 17.4390 0.0000 -10653.0177 1279.8395 0.0000 0.0000 1701.7186 -7638.7728 286.2590 -9340.4914 -7567.7408 295.4104 -1285.7868 -1300.4094 30801.6210 -487.8139 -435.7709
ENERGY: 600000 6.6291 14.7047 14.9215 0.0000 -10851.3232 1502.4933 0.0000 0.0000 1754.6783 -7557.8963 295.1677 -9312.5746 -7578.3306 295.6078 647.3160 690.9465 30341.2890 -138.2853 -106.5531
ENERGY: 900000 5.8756 10.5098 17.1101 0.0000 -10993.1720 1510.4904 0.0000 0.0000 1841.3843 -7607.8018 309.7532 -9449.1861 -7576.6898 298.4630 121.6286 190.0540 30710.1176 10.4757 49.3225
ENERGY: 1200000 7.5013 11.1836 18.6360 0.0000 -10911.4481 1507.8459 0.0000 0.0000 1779.5283 -7586.7530 299.3479 -9366.2813 -7576.9515 298.8629 292.3227 406.7750 30622.8508 75.9132 119.8478
ENERGY: 1500000 4.7826 14.3959 18.3418 0.0000 -10822.0756 1422.4691 0.0000 0.0000 1777.3822 -7584.7038 298.9869 -9362.0861 -7568.9545 299.8460 -196.4253 -76.7451 30422.7928 94.6567 146.2053
TCL: Running FEP window  10: Lambda1 0.44999999999999996 Lambda2 0.49999999999999994 [dLambda 0.04999999999999999]
TCL: Setting parameter firsttimestep to 0
TCL: Setting parameter alchLambda to 0.44999999999999996
Info: NONBONDED TABLE R-SQUARED SPACING: 0.0625
Info: NONBONDED TABLE SIZE: 705 POINTS
TCL: Setting parameter alchLambda2 to 0.49999999999999994
Info: NONBONDED TABLE R-SQUARED SPACING: 0.0625
Info: NONBONDED TABLE SIZE: 705 POINTS
TCL: Running for 1500000 steps
ETITLE: TS BOND ANGLE DIHED IMPRP ELECT VDW BOUNDARY MISC KINETIC TOTAL TEMP POTENTIAL TOTALAVG TEMPAVG PRESSURE GPRESSURE VOLUME PRESSAVG GPRESSAVG
ENERGY: 0 4.7826 14.3959 18.3418 0.0000 -10822.0751 1422.5135 0.0000 0.0000 1776.5111 -7585.5301 298.8404 -9362.0412 -7585.5301 298.8404 -145.5941 -66.6411 30422.7928 -145.5941 -66.6411
ENERGY: 300000 6.6217 17.0249 16.9928 0.0000 -10914.0492 1525.4324 0.0000 0.0000 1747.2705 -7600.7069 293.9216 -9347.9774 -7560.7670 301.1680 638.1385 695.5362 30421.7815 409.4188 451.2750
ENERGY: 600000 1.5596 7.2122 21.1686 0.0000 -10816.0088 1440.4846 0.0000 0.0000 1759.2739 -7586.3098 295.9408 -9345.5838 -7551.9723 300.7088 250.1481 316.7617 30150.3809 284.3237 337.0633
ENERGY: 900000 6.2424 20.4274 15.1978 0.0000 -10884.5036 1447.8282 0.0000 0.0000 1811.5162 -7583.2917 304.7289 -9394.8078 -7561.5122 300.9496 372.7477 370.5078 30319.8596 285.8139 323.0534
ENERGY: 1200000 5.8989 13.0775 18.2730 0.0000 -10915.8193 1513.3429 0.0000 0.0000 1780.8735 -7584.3535 299.5742 -9365.2269 -7563.5007 299.9435 368.0511 426.1131 30394.0929 221.3481 260.8299
ENERGY: 1500000 5.1777 7.3954 19.2455 0.0000 -10765.0385 1418.4392 0.0000 0.0000 1830.7330 -7484.0477 307.9615 -9314.7807 -7556.8106 300.3521 -58.6239 5.3769 30322.8317 139.4199 189.2795
TCL: Running FEP window  11: Lambda1 0.49999999999999994 Lambda2 0.5499999999999999 [dLambda 0.04999999999999999]
TCL: Setting parameter firsttimestep to 0
TCL: Setting parameter alchLambda to 0.49999999999999994
Info: NONBONDED TABLE R-SQUARED SPACING: 0.0625
Info: NONBONDED TABLE SIZE: 705 POINTS
TCL: Setting parameter alchLambda2 to 0.5499999999999999
Info: NONBONDED TABLE R-SQUARED SPACING: 0.0625
Info: NONBONDED TABLE SIZE: 705 POINTS
TCL: Running for 1500000 steps
ETITLE: TS BOND ANGLE DIHED IMPRP ELECT VDW BOUNDARY MISC KINETIC TOTAL TEMP POTENTIAL TOTALAVG TEMPAVG PRESSURE GPRESSURE VOLUME PRESSAVG GPRESSAVG
ENERGY: 0 5.1777 7.3954 19.2455 0.0000 -10765.0381 1418.1743 0.0000 0.0000 1829.8819 -7485.1633 307.8183 -9315.0452 -7485.1633 307.8183 -75.5095 15.4418 30322.8317 -75.5095 15.4418
ENERGY: 300000 3.6776 15.8099 21.4257 0.0000 -10761.4993 1392.6788 0.0000 0.0000 1791.1799 -7536.7274 301.3079 -9327.9073 -7535.8448 303.3791 -257.1824 -233.9772 30819.2724 -13.4519 26.5813
ENERGY: 600000 5.6191 12.6162 17.8920 0.0000 -10813.7506 1427.4537 0.0000 0.0000 1783.7074 -7566.4621 300.0509 -9350.1695 -7541.7589 301.5933 174.2069 222.8565 30497.2263 -94.3200 -52.5227
ENERGY: 900000 5.3937 18.2687 16.8473 0.0000 -10882.5345 1440.6404 0.0000 0.0000 1791.6930 -7609.6913 301.3943 -9401.3843 -7545.5116 301.5903 151.6401 234.7551 30235.4807 9.7247 57.2903
ENERGY: 1200000 4.0059 11.7414 18.0169 0.0000 -10904.6991 1443.9656 0.0000 0.0000 1720.0408 -7706.9284 289.3411 -9426.9693 -7554.1991 301.0422 -323.9517 -324.7181 30767.8357 19.3456 72.6238
ENERGY: 1500000 2.9342 14.0619 18.2731 0.0000 -10838.1010 1434.6747 0.0000 0.0000 1814.7078 -7553.4492 305.2658 -9368.1571 -7555.2741 300.8135 -54.4456 20.8580 30608.5671 -62.8104 -11.2754
TCL: Running FEP window  12: Lambda1 0.5499999999999999 Lambda2 0.6    [dLambda 0.050000000000000044]
TCL: Setting parameter firsttimestep to 0
TCL: Setting parameter alchLambda to 0.5499999999999999
Info: NONBONDED TABLE R-SQUARED SPACING: 0.0625
Info: NONBONDED TABLE SIZE: 705 POINTS
TCL: Setting parameter alchLambda2 to 0.6
Info: NONBONDED TABLE R-SQUARED SPACING: 0.0625
Info: NONBONDED TABLE SIZE: 705 POINTS
TCL: Running for 1500000 steps
ETITLE: TS BOND ANGLE DIHED IMPRP ELECT VDW BOUNDARY MISC KINETIC TOTAL TEMP POTENTIAL TOTALAVG TEMPAVG PRESSURE GPRESSURE VOLUME PRESSAVG GPRESSAVG
ENERGY: 0 2.9342 14.0619 18.2731 0.0000 -10838.1082 1433.9545 0.0000 0.0000 1813.8091 -7555.0754 305.1146 -9368.8845 -7555.0754 305.1146 -68.3110 27.2590 30608.5671 -68.3110 27.2590
ENERGY: 300000 3.0787 15.1586 16.9308 0.0000 -10780.2791 1411.4610 0.0000 0.0000 1772.1698 -7561.4801 298.1101 -9333.6499 -7569.6729 301.7583 -256.4405 -217.2633 30889.2990 -143.8439 -58.9111
ENERGY: 600000 6.1116 16.5231 16.2025 0.0000 -10797.5797 1434.7323 0.0000 0.0000 1833.6995 -7490.3106 308.4605 -9324.0101 -7574.9280 302.6236 56.8642 124.6860 30859.1016 -104.4356 -28.4618
ENERGY: 900000 4.3510 12.0652 18.9883 0.0000 -10738.3589 1375.3164 0.0000 0.0000 1802.0048 -7525.6332 303.1289 -9327.6380 -7576.6720 300.5005 -477.8138 -410.6079 30982.0485 -155.4688 -75.3072
ENERGY: 1200000 5.6658 12.7647 19.5677 0.0000 -10908.1113 1500.0997 0.0000 0.0000 1763.6203 -7606.3931 296.6719 -9370.0134 -7566.5491 299.3764 478.6604 530.0422 30497.6983 -105.8239 -31.2655
ENERGY: 1500000 5.0692 12.2096 18.4175 0.0000 -10937.6348 1533.6735 0.0000 0.0000 1808.5080 -7559.7570 304.2228 -9368.2650 -7567.6004 299.4792 678.5504 692.5037 30810.6233 -86.9798 -18.9413
TCL: Running FEP window  13: Lambda1 0.6    Lambda2 0.65   [dLambda 0.050000000000000044]
TCL: Setting parameter firsttimestep to 0
TCL: Setting parameter alchLambda to 0.6
Info: NONBONDED TABLE R-SQUARED SPACING: 0.0625
Info: NONBONDED TABLE SIZE: 705 POINTS
TCL: Setting parameter alchLambda2 to 0.65
Info: NONBONDED TABLE R-SQUARED SPACING: 0.0625
Info: NONBONDED TABLE SIZE: 705 POINTS
TCL: Running for 1500000 steps
ETITLE: TS BOND ANGLE DIHED IMPRP ELECT VDW BOUNDARY MISC KINETIC TOTAL TEMP POTENTIAL TOTALAVG TEMPAVG PRESSURE GPRESSURE VOLUME PRESSAVG GPRESSAVG
ENERGY: 0 5.0692 12.2096 18.4175 0.0000 -10938.4208 1533.9074 0.0000 0.0000 1807.5910 -7561.2262 304.0686 -9368.8172 -7561.2262 304.0686 634.6464 709.4149 30810.6233 634.6464 709.4149
ENERGY: 300000 3.8424 14.8920 18.5522 0.0000 -10790.4052 1425.5379 0.0000 0.0000 1762.2640 -7565.3167 296.4438 -9327.5807 -7558.2478 301.1719 -229.7726 -219.4626 31130.8037 241.3503 281.2450
ENERGY: 600000 5.6399 7.9975 20.3318 0.0000 -10895.8443 1434.6121 0.0000 0.0000 1801.2738 -7625.9892 303.0059 -9427.2629 -7559.8393 302.5980 -310.3818 -226.9751 30566.2429 203.5871 255.6431
ENERGY: 900000 6.5347 15.3545 17.6085 0.0000 -10907.0118 1525.0817 0.0000 0.0000 1734.3047 -7608.1277 291.7405 -9342.4324 -7575.6753 299.4698 642.8178 678.1082 30299.0071 80.6826 134.1414
ENERGY: 1200000 5.3252 15.1608 18.0429 0.0000 -10809.6301 1436.0320 0.0000 0.0000 1800.1002 -7534.9691 302.8085 -9335.0692 -7569.8569 300.2001 -127.7141 -76.0029 30856.3426 17.9232 63.2272
ENERGY: 1500000 4.0576 9.4386 20.7888 0.0000 -10683.9229 1384.0581 0.0000 0.0000 1823.9335 -7441.6463 306.8177 -9265.5798 -7557.8962 299.8985 -356.7027 -289.8588 31130.6339 -102.3737 -59.5115
TCL: Running FEP window  14: Lambda1 0.65   Lambda2 0.7000000000000001 [dLambda 0.050000000000000044]
TCL: Setting parameter firsttimestep to 0
TCL: Setting parameter alchLambda to 0.65
Info: NONBONDED TABLE R-SQUARED SPACING: 0.0625
Info: NONBONDED TABLE SIZE: 705 POINTS
TCL: Setting parameter alchLambda2 to 0.7000000000000001
Info: NONBONDED TABLE R-SQUARED SPACING: 0.0625
Info: NONBONDED TABLE SIZE: 705 POINTS
TCL: Running for 1500000 steps
ETITLE: TS BOND ANGLE DIHED IMPRP ELECT VDW BOUNDARY MISC KINETIC TOTAL TEMP POTENTIAL TOTALAVG TEMPAVG PRESSURE GPRESSURE VOLUME PRESSAVG GPRESSAVG
ENERGY: 0 4.0576 9.4387 20.7887 0.0000 -10684.0994 1383.6158 0.0000 0.0000 1823.0620 -7443.1366 306.6711 -9266.1985 -7443.1366 306.6711 -354.5615 -284.2826 31130.6339 -354.5615 -284.2826
ENERGY: 300000 3.1637 13.9149 17.2635 0.0000 -10962.2286 1497.6100 0.0000 0.0000 1770.2107 -7660.0658 297.7806 -9430.2764 -7585.3704 300.6825 233.0328 248.4906 30370.4837 -132.5793 -78.1036
ENERGY: 600000 6.8492 14.6100 17.4367 0.0000 -10702.6152 1376.0012 0.0000 0.0000 1819.1125 -7468.6056 306.0067 -9287.7181 -7584.3442 299.4193 -663.9133 -546.5703 31066.3417 -108.8979 -43.5623
ENERGY: 900000 5.1028 14.7000 18.8632 0.0000 -10777.5710 1490.2790 0.0000 0.0000 1821.8159 -7426.8101 306.4615 -9248.6260 -7555.2630 301.3643 401.8486 421.5414 31310.5712 -47.4779 12.0446
ENERGY: 1200000 4.4097 9.9252 16.3029 0.0000 -10928.7186 1579.7554 0.0000 0.0000 1724.7477 -7593.5777 290.1329 -9318.3253 -7564.7577 299.9450 1414.7891 1475.5525 30262.7190 -28.6528 25.2912
ENERGY: 1500000 1.6600 11.9093 16.0946 0.0000 -10966.6175 1513.7633 0.0000 0.0000 1770.8546 -7652.3358 297.8889 -9423.1903 -7575.5746 299.2362 277.2360 352.4810 30414.1790 -18.6528 37.2603
TCL: Running FEP window  15: Lambda1 0.7000000000000001 Lambda2 0.7500000000000001 [dLambda 0.050000000000000044]
TCL: Setting parameter firsttimestep to 0
TCL: Setting parameter alchLambda to 0.7000000000000001
Info: NONBONDED TABLE R-SQUARED SPACING: 0.0625
Info: NONBONDED TABLE SIZE: 705 POINTS
TCL: Setting parameter alchLambda2 to 0.7500000000000001
Info: NONBONDED TABLE R-SQUARED SPACING: 0.0625
Info: NONBONDED TABLE SIZE: 705 POINTS
TCL: Running for 1500000 steps
ETITLE: TS BOND ANGLE DIHED IMPRP ELECT VDW BOUNDARY MISC KINETIC TOTAL TEMP POTENTIAL TOTALAVG TEMPAVG PRESSURE GPRESSURE VOLUME PRESSAVG GPRESSAVG
ENERGY: 0 1.6600 11.9093 16.0946 0.0000 -10969.0962 1513.8277 0.0000 0.0000 1769.9560 -7655.6485 297.7377 -9425.6046 -7655.6485 297.7377 275.7873 364.3669 30414.1790 275.7873 364.3669
ENERGY: 300000 4.2968 15.1256 19.1772 0.0000 -10793.0576 1378.0068 0.0000 0.0000 1854.0117 -7522.4394 311.8774 -9376.4512 -7563.1484 303.7008 -476.4876 -421.4256 30572.1595 68.6030 122.5947
ENERGY: 600000 6.7791 11.0729 19.3793 0.0000 -10822.4280 1400.3525 0.0000 0.0000 1774.6390 -7610.2053 298.5255 -9384.8443 -7578.9408 302.5838 -313.3901 -298.9670 30277.5704 104.7193 156.6918
ENERGY: 900000 8.9543 10.7372 17.2810 0.0000 -10897.5333 1484.0276 0.0000 0.0000 1781.9388 -7594.5944 299.7534 -9376.5332 -7578.1911 300.9689 -114.8078 -26.2662 31370.6619 223.0148 268.9883
ENERGY: 1200000 3.8322 13.4189 19.3689 0.0000 -10796.8345 1467.1147 0.0000 0.0000 1782.7037 -7510.3962 299.8821 -9293.0999 -7571.9579 300.8704 249.8475 326.0312 30963.2972 180.1052 232.4615
ENERGY: 1500000 7.8316 11.6545 17.5157 0.0000 -10856.9455 1464.5694 0.0000 0.0000 1720.7827 -7634.5917 289.4659 -9355.3743 -7571.5521 299.6882 0.8652 99.5571 30878.7384 145.9271 205.8207
TCL: Running FEP window  16: Lambda1 0.7500000000000001 Lambda2 0.8000000000000002 [dLambda 0.050000000000000044]
TCL: Setting parameter firsttimestep to 0
TCL: Setting parameter alchLambda to 0.7500000000000001
Info: NONBONDED TABLE R-SQUARED SPACING: 0.0625
Info: NONBONDED TABLE SIZE: 705 POINTS
TCL: Setting parameter alchLambda2 to 0.8000000000000002
Info: NONBONDED TABLE R-SQUARED SPACING: 0.0625
Info: NONBONDED TABLE SIZE: 705 POINTS
TCL: Running for 1500000 steps
ETITLE: TS BOND ANGLE DIHED IMPRP ELECT VDW BOUNDARY MISC KINETIC TOTAL TEMP POTENTIAL TOTALAVG TEMPAVG PRESSURE GPRESSURE VOLUME PRESSAVG GPRESSAVG
ENERGY: 0 7.8316 11.6545 17.5157 0.0000 -10860.3671 1465.3809 0.0000 0.0000 1719.8708 -7638.1136 289.3125 -9357.9844 -7638.1136 289.3125 29.9599 118.4601 30878.7384 29.9599 118.4601
ENERGY: 300000 6.6665 14.1680 16.3773 0.0000 -10878.7317 1492.2479 0.0000 0.0000 1789.4919 -7559.7801 301.0240 -9349.2720 -7587.2400 297.8046 429.8290 601.5374 30513.8600 -67.5168 8.8775
ENERGY: 600000 2.5342 9.0698 17.0936 0.0000 -10861.0421 1463.5969 0.0000 0.0000 1743.7372 -7625.0104 293.3273 -9368.7477 -7585.8428 299.7005 176.0432 187.5290 30726.9277 -73.8603 -2.0559
ENERGY: 900000 2.0778 10.2671 17.8437 0.0000 -10578.6962 1269.3951 0.0000 0.0000 1745.1808 -7533.9317 293.5701 -9279.1125 -7572.4389 300.1390 -1311.4382 -1274.0964 31365.0696 -147.7400 -72.1507
ENERGY: 1200000 2.5490 17.3769 16.6673 0.0000 -10889.7417 1429.9727 0.0000 0.0000 1764.4573 -7658.7185 296.8127 -9423.1759 -7583.0338 299.2148 153.1174 164.2562 30189.0254 -114.0186 -52.3778
ENERGY: 1500000 3.2023 12.0620 19.8539 0.0000 -10814.7751 1391.6738 0.0000 0.0000 1811.4096 -7576.5735 304.7109 -9387.9831 -7576.5811 300.4273 -545.5994 -487.0831 30619.3487 -76.6935 -10.7776
TCL: Running FEP window  17: Lambda1 0.8000000000000002 Lambda2 0.8500000000000002 [dLambda 0.050000000000000044]
TCL: Setting parameter firsttimestep to 0
TCL: Setting parameter alchLambda to 0.8000000000000002
Info: NONBONDED TABLE R-SQUARED SPACING: 0.0625
Info: NONBONDED TABLE SIZE: 705 POINTS
TCL: Setting parameter alchLambda2 to 0.8500000000000002
Info: NONBONDED TABLE R-SQUARED SPACING: 0.0625
Info: NONBONDED TABLE SIZE: 705 POINTS
TCL: Running for 1500000 steps
ETITLE: TS BOND ANGLE DIHED IMPRP ELECT VDW BOUNDARY MISC KINETIC TOTAL TEMP POTENTIAL TOTALAVG TEMPAVG PRESSURE GPRESSURE VOLUME PRESSAVG GPRESSAVG
ENERGY: 0 3.2023 12.0620 19.8539 0.0000 -10816.6087 1391.2033 0.0000 0.0000 1810.5285 -7579.7587 304.5627 -9390.2872 -7579.7587 304.5627 -572.1821 -476.9710 30619.3487 -572.1821 -476.9710
ENERGY: 300000 2.5566 11.3194 22.3957 0.0000 -10897.7603 1463.9792 0.0000 0.0000 1714.3430 -7683.1664 288.3826 -9397.5094 -7596.2008 299.3310 -105.6984 13.6180 30971.3638 -182.1674 -81.5775
ENERGY: 600000 4.3202 10.6627 20.8674 0.0000 -10756.8284 1393.7921 0.0000 0.0000 1846.2257 -7480.9603 310.5676 -9327.1860 -7590.6949 301.4996 -161.3536 -163.9716 30935.3953 -150.2128 -74.6892
ENERGY: 900000 4.4218 20.3277 16.8611 0.0000 -11071.5096 1584.0480 0.0000 0.0000 1747.4261 -7698.4248 293.9478 -9445.8509 -7598.9477 300.4327 900.6171 1026.7459 30381.1702 12.3588 90.1166
ENERGY: 1200000 6.1629 12.9631 17.3191 0.0000 -10800.6007 1398.7842 0.0000 0.0000 1798.9326 -7566.4389 302.6121 -9365.3715 -7588.9929 300.0292 -483.7438 -434.2136 31138.4505 -61.7347 19.6386
ENERGY: 1500000 2.7274 11.6530 18.8949 0.0000 -10787.7859 1469.9563 0.0000 0.0000 1790.7773 -7493.7769 301.2402 -9284.5542 -7582.3655 300.1183 307.3080 380.0655 30892.6621 -0.7681 73.9400
TCL: Running FEP window  18: Lambda1 0.8500000000000002 Lambda2 0.9000000000000002 [dLambda 0.050000000000000044]
TCL: Setting parameter firsttimestep to 0
TCL: Setting parameter alchLambda to 0.8500000000000002
Info: NONBONDED TABLE R-SQUARED SPACING: 0.0625
Info: NONBONDED TABLE SIZE: 705 POINTS
TCL: Setting parameter alchLambda2 to 0.9000000000000002
Info: NONBONDED TABLE R-SQUARED SPACING: 0.0625
Info: NONBONDED TABLE SIZE: 705 POINTS
TCL: Running for 1500000 steps
ETITLE: TS BOND ANGLE DIHED IMPRP ELECT VDW BOUNDARY MISC KINETIC TOTAL TEMP POTENTIAL TOTALAVG TEMPAVG PRESSURE GPRESSURE VOLUME PRESSAVG GPRESSAVG
ENERGY: 0 2.7274 11.6530 18.8949 0.0000 -10791.2492 1471.2099 0.0000 0.0000 1789.9251 -7496.8388 301.0969 -9286.7639 -7496.8388 301.0969 334.9790 407.9898 30892.6621 334.9790 407.9898
ENERGY: 300000 5.4536 12.3774 17.5042 0.0000 -10743.1165 1391.8003 0.0000 0.0000 1738.8347 -7577.1463 292.5026 -9315.9810 -7556.4884 298.3550 -480.2490 -446.5550 31180.6790 101.9406 153.0513
ENERGY: 600000 8.4003 11.6222 21.4818 0.0000 -10874.1977 1435.7588 0.0000 0.0000 1764.8534 -7632.0813 296.8794 -9396.9347 -7576.1903 297.7874 -165.9642 -85.5309 30511.6096 76.0686 125.2395
ENERGY: 900000 6.5618 12.2046 20.1750 0.0000 -10777.8452 1402.8064 0.0000 0.0000 1731.4715 -7604.6259 291.2639 -9336.0974 -7573.3209 297.9827 -316.6650 -195.1743 30783.0442 6.5717 59.9004
ENERGY: 1200000 4.1584 12.7904 17.0176 0.0000 -10778.9665 1442.1843 0.0000 0.0000 1809.8201 -7492.9957 304.4436 -9302.8158 -7568.7751 299.3216 -94.8772 -31.2658 31322.5214 -34.9344 20.8770
ENERGY: 1500000 5.4749 12.0167 17.6326 0.0000 -10953.2244 1469.0953 0.0000 0.0000 1833.7036 -7615.3013 308.4612 -9449.0050 -7561.3967 300.3934 286.6112 323.9274 30336.4215 -35.7517 11.2566
TCL: Running FEP window  19: Lambda1 0.9000000000000002 Lambda2 0.9500000000000003 [dLambda 0.050000000000000044]
TCL: Setting parameter firsttimestep to 0
TCL: Setting parameter alchLambda to 0.9000000000000002
Info: NONBONDED TABLE R-SQUARED SPACING: 0.0625
Info: NONBONDED TABLE SIZE: 705 POINTS
TCL: Setting parameter alchLambda2 to 0.9500000000000003
Info: NONBONDED TABLE R-SQUARED SPACING: 0.0625
Info: NONBONDED TABLE SIZE: 705 POINTS
TCL: Running for 1500000 steps
ETITLE: TS BOND ANGLE DIHED IMPRP ELECT VDW BOUNDARY MISC KINETIC TOTAL TEMP POTENTIAL TOTALAVG TEMPAVG PRESSURE GPRESSURE VOLUME PRESSAVG GPRESSAVG
ENERGY: 0 5.4749 12.0167 17.6326 0.0000 -10955.1747 1468.6155 0.0000 0.0000 1832.8000 -7618.6350 308.3092 -9451.4350 -7618.6350 308.3092 256.6412 335.4121 30336.4215 256.6412 335.4121
ENERGY: 300000 3.7907 13.6904 18.1943 0.0000 -10982.9228 1457.2925 0.0000 0.0000 1803.9068 -7686.0481 303.4488 -9489.9548 -7647.7347 302.4219 -75.4916 -14.7650 30609.2550 432.8428 497.3790
ENERGY: 600000 4.8155 12.6689 17.2087 0.0000 -10770.8207 1404.6048 0.0000 0.0000 1829.8755 -7501.6473 307.8172 -9331.5228 -7606.9393 301.7353 45.4647 52.0398 30612.5363 291.0112 350.2492
ENERGY: 900000 2.1733 16.9876 18.1048 0.0000 -10887.4571 1460.3848 0.0000 0.0000 1742.9760 -7646.8306 293.1992 -9389.8066 -7592.3140 300.6136 -46.7697 21.6348 30662.2018 141.8669 204.0279
ENERGY: 1200000 6.1533 9.0444 18.4383 0.0000 -10973.7270 1546.4487 0.0000 0.0000 1757.8359 -7635.8066 295.6989 -9393.6425 -7595.0782 300.0401 806.7755 843.5790 30598.1218 113.6646 173.2907
ENERGY: 1500000 9.5224 12.5942 20.0225 0.0000 -10784.7833 1378.8070 0.0000 0.0000 1810.8989 -7552.9384 304.6250 -9363.8373 -7594.4248 300.7644 -464.4349 -342.3093 30626.6414 129.0457 193.3117
TCL: Running FEP window  20: Lambda1 0.9500000000000003 Lambda2 1.0    [dLambda 0.04999999999999971]
TCL: Setting parameter firsttimestep to 0
TCL: Setting parameter alchLambda to 0.9500000000000003
Info: NONBONDED TABLE R-SQUARED SPACING: 0.0625
Info: NONBONDED TABLE SIZE: 705 POINTS
TCL: Setting parameter alchLambda2 to 1.0
Info: NONBONDED TABLE R-SQUARED SPACING: 0.0625
Info: NONBONDED TABLE SIZE: 705 POINTS
TCL: Running for 1500000 steps
ETITLE: TS BOND ANGLE DIHED IMPRP ELECT VDW BOUNDARY MISC KINETIC TOTAL TEMP POTENTIAL TOTALAVG TEMPAVG PRESSURE GPRESSURE VOLUME PRESSAVG GPRESSAVG
ENERGY: 0 9.5224 12.5942 20.0225 0.0000 -10787.6777 1379.5601 0.0000 0.0000 1810.0156 -7555.9630 304.4764 -9365.9785 -7555.9630 304.4764 -403.9899 -318.2805 30626.6414 -403.9899 -318.2805
ENERGY: 300000 3.6486 8.3966 19.1712 0.0000 -10835.9527 1492.7837 0.0000 0.0000 1823.7012 -7488.2514 306.7786 -9311.9527 -7522.9888 306.4381 642.9904 726.0655 30833.5685 233.7738 292.2965
ENERGY: 600000 4.2354 9.0641 17.7486 0.0000 -10801.7052 1436.3432 0.0000 0.0000 1802.1937 -7532.1201 303.1607 -9334.3138 -7550.0824 303.4783 -240.4475 -226.0819 31365.8734 138.4233 187.0267
ENERGY: 900000 7.3056 11.2113 17.9428 0.0000 -10756.2468 1347.9860 0.0000 0.0000 1768.8178 -7602.9833 297.5463 -9371.8011 -7560.7675 303.1443 -704.8410 -685.2470 30930.4996 -16.6092 25.1103
ENERGY: 1200000 2.3696 13.8996 20.1351 0.0000 -10662.8429 1325.9499 0.0000 0.0000 1755.4171 -7545.0716 295.2920 -9300.4887 -7565.3528 301.7393 -743.6799 -662.0370 30926.5933 -19.5596 26.5541
ENERGY: 1500000 7.2345 11.1025 17.8656 0.0000 -10863.7064 1447.7996 0.0000 0.0000 1808.7926 -7570.9116 304.2707 -9379.7042 -7564.8804 301.6475 -97.6668 -23.0978 30924.2627 -44.2100 12.2333
TCL: Exiting due to exit command.
