Info: SIMULATION PARAMETERS:
Info: TIMESTEP               2
Info: NUMBER OF STEPS        0
Info: STEPS PER CYCLE        10
Info: PERIODIC CELL BASIS 1  30.8183 0 0
Info: PERIODIC CELL BASIS 2  0 29.4204 0
Info: PERIODIC CELL BASIS 3  0 0 32.7642
Info: PERIODIC CELL CENTER   0 0 0
Info: WRAPPING WATERS AROUND PERIODIC BOUNDARIES ON OUTPUT.
Info: WRAPPING ALL CLUSTERS AROUND PERIODIC BOUNDARIES ON OUTPUT.
Info: FIRST LDB TIMESTEP     50
Info: LAST LDB TIMESTEP     -1
Info: HOM BACKGROUND SCALING 1
Info: PME BACKGROUND SCALING 1
Info: MIN ATOMS PER PATCH    40
Info: EMPTY PATCH LOAD       40 ATOMS
Info: VELOCITY FILE          mobley_5076071_equil.vel
Info: CENTER OF MASS MOVING INITIALLY? NO
Info: DIELECTRIC             1
Info: EXCLUDE                SCALED ONE-FOUR
Info: 1-4 ELECTROSTATICS SCALED BY 0.833333
Info: MODIFIED 1-4 VDW PARAMETERS WILL BE USED
Info: DCD FILENAME           mobley_5076071_prod.dcd
Info: DCD FREQUENCY          100000
Info: DCD FIRST STEP         100000
Info: DCD FILE WILL CONTAIN UNIT CELL DATA
Info: XST FILENAME           mobley_5076071_prod.xst
Info: XST FREQUENCY          100000
Info: NO VELOCITY DCD OUTPUT
Info: NO FORCE DCD OUTPUT
Info: OUTPUT FILENAME        mobley_5076071_prod
Info: BINARY OUTPUT FILES WILL BE USED
Info: RESTART FILENAME       mobley_5076071_prod.restart
Info: RESTART FREQUENCY      100000
Info: BINARY RESTART FILES WILL BE USED
Info: CUTOFF                 9
Info: PAIRLIST DISTANCE      11
Info: PAIRLIST SHRINK RATE   0.01
Info: PAIRLIST GROW RATE     0.01
Info: PAIRLIST TRIGGER       0.3
Info: PAIRLISTS PER CYCLE    2
Info: PAIRLISTS ENABLED
Info: MARGIN                 2
Info: HYDROGEN GROUP CUTOFF  2.5
Info: PATCH DIMENSION        15.5
Info: ENERGY OUTPUT STEPS    100000
Info: ENERGY EVALUATION STEPS    100000
Info: OUTPUT ENERGY PRECISION 4
Info: CROSSTERM ENERGY INCLUDED IN DIHEDRAL
Info: TIMING OUTPUT STEPS    1000000
Info: PRESSURE OUTPUT STEPS  100000
Info: ALCHEMICAL FEP ON
Info: FEP CURRENT LAMBDA VALUE     1
Info: FEP COMPARISON LAMBDA VALUE  0.95
Info: FEP INTRA-ALCHEMICAL NON-BONDED INTERACTIONS WILL BE RETAINED
Info: FEP INTRA-ALCHEMICAL BONDED INTERACTIONS WILL BE RETAINED
Info: FEP VDW SHIFTING COEFFICIENT 5
Info: FEP ELEC. ACTIVE FOR ANNIHILATED PARTICLES BETWEEN LAMBDA = 0 AND LAMBDA = 0.5
Info: FEP ELEC. ACTIVE FOR EXNIHILATED PARTICLES BETWEEN LAMBDA = 0.5 AND LAMBDA = 1
Info: FEP VDW ACTIVE FOR ANNIHILATED PARTICLES BETWEEN LAMBDA = 0 AND LAMBDA = 1
Info: FEP VDW ACTIVE FOR EXNIHILATED PARTICLES BETWEEN LAMBDA = 0 AND LAMBDA = 1
Info: FEP BOND ACTIVE FOR ANNIHILATED PARTICLES BETWEEN LAMBDA = 1 AND LAMBDA = 1
Info: FEP BOND ACTIVE FOR EXNIHILATED PARTICLES BETWEEN LAMBDA = 0 AND LAMBDA = 0
Info: LANGEVIN DYNAMICS ACTIVE
Info: LANGEVIN TEMPERATURE   300
Info: LANGEVIN USING BBK INTEGRATOR
Info: LANGEVIN DAMPING COEFFICIENT IS 1 INVERSE PS
Info: LANGEVIN DYNAMICS APPLIED TO HYDROGENS
Info: LANGEVIN PISTON PRESSURE CONTROL ACTIVE
Info:        TARGET PRESSURE IS 1.01325 BAR
Info:     OSCILLATION PERIOD IS 50 FS
Info:             DECAY TIME IS 25 FS
Info:     PISTON TEMPERATURE IS 300 K
Info:       PRESSURE CONTROL IS GROUP-BASED
Info:    INITIAL STRAIN RATE IS -0.000558532 -0.000558532 -0.000558532
Info:       CELL FLUCTUATION IS ISOTROPIC
Info: PARTICLE MESH EWALD (PME) ACTIVE
Info: PME TOLERANCE               1e-06
Info: PME EWALD COEFFICIENT       0.348832
Info: PME INTERPOLATION ORDER     4
Info: PME GRID DIMENSIONS         32 32 36
Info: PME MAXIMUM GRID SPACING    1
Info: PME CALCULATION WILL BE PERFORMED ON GPU
Info: FULL ELECTROSTATIC EVALUATION FREQUENCY      2
Info: USING VERLET I (r-RESPA) MTS SCHEME.
Info: C1 SPLITTING OF LONG RANGE ELECTROSTATICS
Info: PLACING ATOMS IN PATCHES BY HYDROGEN GROUPS
Info: RIGID BONDS TO HYDROGEN : ALL
Info:         ERROR TOLERANCE : 1e-08
Info:          MAX ITERATIONS : 100
Info: RIGID WATER USING SETTLE ALGORITHM
Info: RANDOM NUMBER SEED     1744048801
Info: USE HYDROGEN BONDS?    NO
Info: Using AMBER format force field!
Info: AMBER PARM FILE        mobley_5076071.prmtop
Info: COORDINATE PDB         mobley_5076071.pdb
Info: Exclusions will be read from PARM file!
Info: SCNB (VDW SCALING)     2
Info: USING ARITHMETIC MEAN TO COMBINE L-J SIGMA PARAMETERS
Info: BINARY COORDINATES     mobley_5076071_equil.coor
Info: SUMMARY OF PARAMETERS:
Info: 14 BONDS
Info: 19 ANGLES
Info:   19 HARMONIC
Info:   0 COSINE-BASED
Info: 6 DIHEDRAL
Info: 0 IMPROPER
Info: 0 CROSSTERM
Info: 0 VDW
Info: 66 VDW_PAIRS
Info: 0 NBTHOLE_PAIRS
Info: To read alchdata from file: mobley_5076071.pdb
Info: To read alchflag data from column: 5
Info: STRUCTURE SUMMARY:
Info: 2909 ATOMS
Info: 2909 BONDS
Info: 60 ANGLES
Info: 84 DIHEDRALS
Info: 0 IMPROPERS
Info: 0 CROSSTERMS
Info: 3042 EXCLUSIONS
Info: 2887 RIGID BONDS
Info: ALCH: 0 ATOMS TO DISAPPEAR IN FINAL STATE
Info: ALCH: 35 ATOMS TO APPEAR IN FINAL STATE
Info: 5840 DEGREES OF FREEDOM
Info: 980 HYDROGEN GROUPS
Info: 4 ATOMS IN LARGEST HYDROGEN GROUP
Info: 980 MIGRATION GROUPS
Info: 4 ATOMS IN LARGEST MIGRATION GROUP
Info: TOTAL MASS = 17581.6 amu
Info: TOTAL CHARGE = -0.000300046 e
Info: MASS DENSITY = 0.982791 g/cm^3
Info: ATOM DENSITY = 0.0979236 atoms/A^3
Info: ADDED 0 IMPLICIT EXCLUSIONS
Info: NONBONDED TABLE R-SQUARED SPACING: 0.0625
Info: NONBONDED TABLE SIZE: 705 POINTS
Info: REMOVING COM VELOCITY 0.0126909 0.0763218 -0.129932
Info: Use 3D box decompostion in PME FFT.
Info: Updated CUDA force table with 4096 elements.
Info: Updated CUDA LJ table with 11 x 11 elements.
Info: Found 36 unique exclusion lists needing 168 bytes
TCL: Running for 1500000 steps
ETITLE: TS BOND ANGLE DIHED IMPRP ELECT VDW BOUNDARY MISC KINETIC TOTAL TEMP POTENTIAL TOTALAVG TEMPAVG PRESSURE GPRESSURE VOLUME PRESSAVG GPRESSAVG
ENERGY: 0 6.5958 9.5563 23.4843 0.0000 -10545.8815 1387.4482 0.0000 0.0000 1841.5619 -7277.2349 317.3685 -9118.7968 -7277.2349 317.3685 297.1029 381.8444 29706.8181 297.1029 381.8444
ENERGY: 300000 7.5031 14.5982 20.0186 0.0000 -10573.4926 1415.3733 0.0000 0.0000 1738.9001 -7377.0993 299.6761 -9115.9994 -7331.2327 304.6857 175.2588 151.9512 30080.2245 -58.7029 -10.5431
ENERGY: 600000 7.4969 18.1346 18.8214 0.0000 -10553.4071 1343.9903 0.0000 0.0000 1736.6377 -7428.3263 299.2862 -9164.9640 -7360.5823 303.7607 -811.5936 -796.1611 30560.4633 -258.1257 -214.1986
ENERGY: 900000 6.5539 16.9354 21.2750 0.0000 -10635.4621 1392.7659 0.0000 0.0000 1751.1838 -7446.7481 301.7931 -9197.9319 -7375.8092 303.1089 -372.7374 -214.0046 29904.2102 -284.3341 -217.5434
ENERGY: 1200000 10.5299 18.8319 23.5347 0.0000 -10547.4484 1401.6988 0.0000 0.0000 1700.9167 -7391.9364 293.1302 -9092.8530 -7386.7683 302.0727 199.4517 251.0954 29880.8682 -169.3337 -102.6151
ENERGY: 1500000 6.9687 25.8819 20.9379 0.0000 -10623.4359 1391.3383 0.0000 0.0000 1757.3307 -7420.9783 302.8524 -9178.3091 -7380.0497 302.1354 -285.9942 -214.0744 30106.8473 -215.0991 -141.1416
TCL: Running FEP window   2: Lambda1 0.95   Lambda2 0.8999999999999999 [dLambda -0.050000000000000044]
TCL: Setting parameter firsttimestep to 0
TCL: Setting parameter alchLambda to 0.95
Info: NONBONDED TABLE R-SQUARED SPACING: 0.0625
Info: NONBONDED TABLE SIZE: 705 POINTS
TCL: Setting parameter alchLambda2 to 0.8999999999999999
Info: NONBONDED TABLE R-SQUARED SPACING: 0.0625
Info: NONBONDED TABLE SIZE: 705 POINTS
TCL: Running for 1500000 steps
ETITLE: TS BOND ANGLE DIHED IMPRP ELECT VDW BOUNDARY MISC KINETIC TOTAL TEMP POTENTIAL TOTALAVG TEMPAVG PRESSURE GPRESSURE VOLUME PRESSAVG GPRESSAVG
ENERGY: 0 6.9687 25.8819 20.9379 0.0000 -10621.7974 1389.6900 0.0000 0.0000 1756.4990 -7421.8199 302.7091 -9178.3188 -7421.8199 302.7091 -336.9029 -255.1227 30106.8473 -336.9029 -255.1227
ENERGY: 300000 4.6684 14.7776 20.6030 0.0000 -10613.6398 1399.1180 0.0000 0.0000 1728.2221 -7446.2507 297.8359 -9174.4728 -7399.5554 302.4895 76.1724 165.9756 29822.4541 55.5411 126.1063
ENERGY: 600000 5.1922 13.9328 21.8531 0.0000 -10541.7507 1353.3879 0.0000 0.0000 1679.8642 -7467.5205 289.5021 -9147.3848 -7422.4247 300.1741 -388.6827 -385.3867 30420.7814 -118.4801 -64.4828
ENERGY: 900000 11.5747 13.4690 20.4584 0.0000 -10577.6016 1438.7827 0.0000 0.0000 1742.0656 -7351.2513 300.2217 -9093.3170 -7402.8211 301.2487 438.5960 440.0685 30176.8118 -167.8694 -110.7895
ENERGY: 1200000 6.4257 17.2647 24.7948 0.0000 -10633.7958 1488.5838 0.0000 0.0000 1677.7020 -7419.0248 289.1295 -9096.7268 -7405.4870 299.7462 923.6627 924.4797 30086.6848 -27.8686 27.7506
ENERGY: 1500000 8.9313 16.1778 22.1860 0.0000 -10814.3298 1550.2707 0.0000 0.0000 1736.9382 -7479.8258 299.3380 -9216.7640 -7410.4399 300.1991 642.2929 789.6049 30393.6998 8.3760 66.9267
TCL: Running FEP window   3: Lambda1 0.8999999999999999 Lambda2 0.8499999999999999 [dLambda -0.050000000000000044]
TCL: Setting parameter firsttimestep to 0
TCL: Setting parameter alchLambda to 0.8999999999999999
Info: NONBONDED TABLE R-SQUARED SPACING: 0.0625
Info: NONBONDED TABLE SIZE: 705 POINTS
TCL: Setting parameter alchLambda2 to 0.8499999999999999
Info: NONBONDED TABLE R-SQUARED SPACING: 0.0625
Info: NONBONDED TABLE SIZE: 705 POINTS
TCL: Running for 1500000 steps
ETITLE: TS BOND ANGLE DIHED IMPRP ELECT VDW BOUNDARY MISC KINETIC TOTAL TEMP POTENTIAL TOTALAVG TEMPAVG PRESSURE GPRESSURE VOLUME PRESSAVG GPRESSAVG
ENERGY: 0 8.9312 16.1778 22.1860 0.0000 -10811.5987 1549.5060 0.0000 0.0000 1736.0686 -7478.7290 299.1882 -9214.7976 -7478.7290 299.1882 677.4403 765.0722 30393.6998 677.4403 765.0722
ENERGY: 300000 8.7783 15.9265 15.9249 0.0000 -10669.4297 1411.4685 0.0000 0.0000 1780.3251 -7437.0064 306.8152 -9217.3315 -7395.3945 303.6871 -117.7354 -83.8000 29488.1283 106.8252 189.1460
ENERGY: 600000 7.0418 11.3255 22.4698 0.0000 -10463.1615 1345.7108 0.0000 0.0000 1742.6665 -7333.9473 300.3252 -9076.6137 -7381.0210 302.5929 -498.3561 -373.2292 30437.1658 -3.8033 66.5587
ENERGY: 900000 5.7972 18.0555 22.1844 0.0000 -10473.4312 1350.1132 0.0000 0.0000 1698.6288 -7378.6521 292.7359 -9077.2809 -7380.8360 301.4201 -383.7729 -291.0212 30085.2991 55.9757 140.0534
ENERGY: 1200000 7.1041 17.4770 22.7016 0.0000 -10390.0492 1308.3211 0.0000 0.0000 1731.0609 -7303.3844 298.3252 -9034.4454 -7385.9082 300.9811 -331.0900 -293.5107 29610.2832 -63.7225 15.5007
ENERGY: 1500000 4.5539 17.0005 21.7640 0.0000 -10595.9783 1444.8300 0.0000 0.0000 1775.0471 -7332.7828 305.9056 -9107.8299 -7379.7024 301.8934 780.1051 792.9994 29706.5115 -30.2746 41.8410
TCL: Running FEP window   4: Lambda1 0.8499999999999999 Lambda2 0.7999999999999998 [dLambda -0.050000000000000044]
TCL: Setting parameter firsttimestep to 0
TCL: Setting parameter alchLambda to 0.8499999999999999
Info: NONBONDED TABLE R-SQUARED SPACING: 0.0625
Info: NONBONDED TABLE SIZE: 705 POINTS
TCL: Setting parameter alchLambda2 to 0.7999999999999998
Info: NONBONDED TABLE R-SQUARED SPACING: 0.0625
Info: NONBONDED TABLE SIZE: 705 POINTS
TCL: Running for 1500000 steps
ETITLE: TS BOND ANGLE DIHED IMPRP ELECT VDW BOUNDARY MISC KINETIC TOTAL TEMP POTENTIAL TOTALAVG TEMPAVG PRESSURE GPRESSURE VOLUME PRESSAVG GPRESSAVG
ENERGY: 0 4.5539 17.0005 21.7640 0.0000 -10593.6093 1444.9346 0.0000 0.0000 1774.1993 -7331.1570 305.7595 -9105.3563 -7331.1570 305.7595 704.5607 772.5961 29706.5115 704.5607 772.5961
ENERGY: 300000 4.6471 17.1518 22.6667 0.0000 -10604.0126 1428.9164 0.0000 0.0000 1746.2767 -7384.3538 300.9474 -9130.6305 -7381.9647 301.2224 368.8029 406.9101 29819.9559 237.6934 327.1156
ENERGY: 600000 5.6338 11.0127 21.1216 0.0000 -10444.3929 1297.7042 0.0000 0.0000 1748.4567 -7360.4640 301.3231 -9108.9207 -7378.9517 301.1783 -324.0410 -228.3310 29780.9680 71.7770 162.1526
ENERGY: 900000 7.2924 10.2767 19.2475 0.0000 -10635.1986 1440.5251 0.0000 0.0000 1751.8221 -7406.0349 301.9031 -9157.8570 -7393.7565 300.3955 247.2757 312.2176 29720.0726 157.2909 245.3363
ENERGY: 1200000 8.5311 17.9580 21.6584 0.0000 -10640.4914 1437.5171 0.0000 0.0000 1761.4242 -7393.4026 303.5579 -9154.8268 -7389.8711 301.6081 202.7468 247.0160 29966.3804 164.6783 241.7500
ENERGY: 1500000 6.6000 16.4446 18.2508 0.0000 -10548.6877 1356.2587 0.0000 0.0000 1727.9283 -7423.2053 297.7853 -9151.1336 -7385.3750 301.0595 -649.5208 -577.8719 30640.4293 65.3574 143.9993
TCL: Running FEP window   5: Lambda1 0.7999999999999998 Lambda2 0.7499999999999998 [dLambda -0.050000000000000044]
TCL: Setting parameter firsttimestep to 0
TCL: Setting parameter alchLambda to 0.7999999999999998
Info: NONBONDED TABLE R-SQUARED SPACING: 0.0625
Info: NONBONDED TABLE SIZE: 705 POINTS
TCL: Setting parameter alchLambda2 to 0.7499999999999998
Info: NONBONDED TABLE R-SQUARED SPACING: 0.0625
Info: NONBONDED TABLE SIZE: 705 POINTS
TCL: Running for 1500000 steps
ETITLE: TS BOND ANGLE DIHED IMPRP ELECT VDW BOUNDARY MISC KINETIC TOTAL TEMP POTENTIAL TOTALAVG TEMPAVG PRESSURE GPRESSURE VOLUME PRESSAVG GPRESSAVG
ENERGY: 0 6.6000 16.4446 18.2508 0.0000 -10547.3418 1356.3467 0.0000 0.0000 1727.0587 -7422.6410 297.6354 -9149.6997 -7422.6410 297.6354 -675.2141 -591.7146 30640.4293 -675.2141 -591.7146
ENERGY: 300000 6.5010 14.3135 20.8907 0.0000 -10651.1670 1444.1386 0.0000 0.0000 1753.3852 -7411.9381 302.1724 -9165.3232 -7435.2741 299.0809 265.8948 351.7048 29883.8706 141.1276 218.2681
ENERGY: 600000 4.4926 17.7928 19.0538 0.0000 -10526.9927 1399.0588 0.0000 0.0000 1679.5045 -7407.0901 289.4401 -9086.5946 -7421.6093 298.1193 347.7069 440.4252 29903.0292 210.5297 286.9872
ENERGY: 900000 5.4511 12.1763 21.9824 0.0000 -10553.3902 1316.8871 0.0000 0.0000 1729.8057 -7467.0876 298.1088 -9196.8932 -7410.0764 298.9162 -814.9571 -684.6015 29621.4995 -34.0159 61.0487
ENERGY: 1200000 6.5213 19.3418 21.3816 0.0000 -10556.6371 1392.2792 0.0000 0.0000 1754.5783 -7362.5349 302.3781 -9117.1133 -7398.2637 299.2941 -98.8556 -0.9286 30070.2678 -75.9992 15.6527
ENERGY: 1500000 10.2298 18.6321 20.2063 0.0000 -10561.7289 1353.9705 0.0000 0.0000 1715.4217 -7443.2685 295.6300 -9158.6903 -7395.9074 299.8493 -404.3347 -400.0404 30213.1207 -59.4175 28.9829
TCL: Running FEP window   6: Lambda1 0.7499999999999998 Lambda2 0.6999999999999997 [dLambda -0.050000000000000044]
TCL: Setting parameter firsttimestep to 0
TCL: Setting parameter alchLambda to 0.7499999999999998
Info: NONBONDED TABLE R-SQUARED SPACING: 0.0625
Info: NONBONDED TABLE SIZE: 705 POINTS
TCL: Setting parameter alchLambda2 to 0.6999999999999997
Info: NONBONDED TABLE R-SQUARED SPACING: 0.0625
Info: NONBONDED TABLE SIZE: 705 POINTS
TCL: Running for 1500000 steps
ETITLE: TS BOND ANGLE DIHED IMPRP ELECT VDW BOUNDARY MISC KINETIC TOTAL TEMP POTENTIAL TOTALAVG TEMPAVG PRESSURE GPRESSURE VOLUME PRESSAVG GPRESSAVG
ENERGY: 0 10.2298 18.6321 20.2063 0.0000 -10560.2811 1354.3928 0.0000 0.0000 1714.5527 -7442.2674 295.4802 -9156.8202 -7442.2674 295.4802 -478.5252 -409.0496 30213.1207 -478.5252 -409.0496
ENERGY: 300000 7.4929 12.2247 19.9022 0.0000 -10568.8507 1359.4433 0.0000 0.0000 1799.7304 -7370.0572 310.1594 -9169.7876 -7414.7618 303.4185 -230.0910 -235.0850 29797.0086 -411.9534 -380.0148
ENERGY: 600000 7.5450 11.4291 19.8974 0.0000 -10521.0024 1321.3164 0.0000 0.0000 1685.5674 -7475.2471 290.4850 -9160.8145 -7451.5602 299.5388 -577.8569 -520.0015 29924.0976 -262.9828 -214.2867
ENERGY: 900000 8.1344 14.6043 24.9649 0.0000 -10573.6838 1391.6543 0.0000 0.0000 1700.8745 -7433.4514 293.1229 -9134.3259 -7432.5529 299.4461 -153.6232 -89.6462 29852.4201 -154.3130 -102.0165
ENERGY: 1200000 7.2653 11.6279 20.2114 0.0000 -10606.8352 1464.5060 0.0000 0.0000 1785.3450 -7317.8796 307.6803 -9103.2247 -7418.7397 300.4914 246.6950 390.1233 30217.3489 -6.4119 51.8946
ENERGY: 1500000 6.3870 13.1535 18.2701 0.0000 -10590.2163 1386.8376 0.0000 0.0000 1763.9589 -7401.6092 303.9947 -9165.5681 -7420.7100 300.5529 -216.0341 -176.3554 30002.2972 -7.0506 53.5941
TCL: Running FEP window   7: Lambda1 0.6999999999999997 Lambda2 0.6499999999999997 [dLambda -0.050000000000000044]
TCL: Setting parameter firsttimestep to 0
TCL: Setting parameter alchLambda to 0.6999999999999997
Info: NONBONDED TABLE R-SQUARED SPACING: 0.0625
Info: NONBONDED TABLE SIZE: 705 POINTS
TCL: Setting parameter alchLambda2 to 0.6499999999999997
Info: NONBONDED TABLE R-SQUARED SPACING: 0.0625
Info: NONBONDED TABLE SIZE: 705 POINTS
TCL: Running for 1500000 steps
ETITLE: TS BOND ANGLE DIHED IMPRP ELECT VDW BOUNDARY MISC KINETIC TOTAL TEMP POTENTIAL TOTALAVG TEMPAVG PRESSURE GPRESSURE VOLUME PRESSAVG GPRESSAVG
ENERGY: 0 6.3870 13.1535 18.2701 0.0000 -10588.1720 1386.8896 0.0000 0.0000 1763.1381 -7400.3337 303.8532 -9163.4718 -7400.3337 303.8532 -283.6872 -190.4801 30002.2972 -283.6872 -190.4801
ENERGY: 300000 10.8502 12.0189 21.1773 0.0000 -10530.7387 1397.3764 0.0000 0.0000 1714.5135 -7374.8024 295.4734 -9089.3159 -7392.5022 300.5521 -113.2460 -50.3746 29989.9933 165.2182 249.8752
ENERGY: 600000 4.3979 16.0829 25.2257 0.0000 -10544.2138 1368.0999 0.0000 0.0000 1738.6370 -7391.7705 299.6308 -9130.4075 -7389.0237 300.3861 -488.6261 -515.9882 30270.6081 -0.0114 62.5717
ENERGY: 900000 5.2195 11.1937 26.5361 0.0000 -10581.3673 1421.4554 0.0000 0.0000 1702.1363 -7414.8263 293.3404 -9116.9626 -7397.1231 299.5740 391.3101 444.9777 29715.5214 32.2418 96.3372
ENERGY: 1200000 7.8501 15.7847 19.8902 0.0000 -10568.0557 1409.0031 0.0000 0.0000 1803.2198 -7312.3078 310.7608 -9115.5276 -7387.9776 300.2281 480.7525 500.0178 29826.3213 52.9275 112.3453
ENERGY: 1500000 11.1437 15.6626 17.5518 0.0000 -10652.5840 1356.1058 0.0000 0.0000 1751.8151 -7500.3051 301.9019 -9252.1202 -7396.5568 300.3234 -940.7826 -943.6968 29826.4172 -17.1251 37.8456
TCL: Running FEP window   8: Lambda1 0.6499999999999997 Lambda2 0.5999999999999996 [dLambda -0.050000000000000044]
TCL: Setting parameter firsttimestep to 0
TCL: Setting parameter alchLambda to 0.6499999999999997
Info: NONBONDED TABLE R-SQUARED SPACING: 0.0625
Info: NONBONDED TABLE SIZE: 705 POINTS
TCL: Setting parameter alchLambda2 to 0.5999999999999996
Info: NONBONDED TABLE R-SQUARED SPACING: 0.0625
Info: NONBONDED TABLE SIZE: 705 POINTS
TCL: Running for 1500000 steps
ETITLE: TS BOND ANGLE DIHED IMPRP ELECT VDW BOUNDARY MISC KINETIC TOTAL TEMP POTENTIAL TOTALAVG TEMPAVG PRESSURE GPRESSURE VOLUME PRESSAVG GPRESSAVG
ENERGY: 0 11.1437 15.6626 17.5518 0.0000 -10651.2727 1356.4769 0.0000 0.0000 1750.9167 -7499.5210 301.7470 -9250.4377 -7499.5210 301.7470 -1053.7324 -951.7093 29826.4172 -1053.7324 -951.7093
ENERGY: 300000 6.9470 14.9822 20.2611 0.0000 -10545.2231 1356.5543 0.0000 0.0000 1711.2545 -7435.2240 294.9118 -9146.4785 -7418.2807 298.1224 -428.5844 -427.1426 30105.6799 -590.5127 -563.9772
ENERGY: 600000 6.5177 10.3090 23.3108 0.0000 -10539.6244 1387.1567 0.0000 0.0000 1718.3791 -7393.9512 296.1396 -9112.3302 -7396.3604 298.0297 -111.9737 -52.7458 30293.5244 -475.2621 -439.5354
ENERGY: 900000 6.4615 12.0918 17.9949 0.0000 -10647.0476 1411.4105 0.0000 0.0000 1724.0984 -7474.9905 297.1253 -9199.0889 -7396.8436 298.4101 -302.0663 -264.2473 29931.3526 -456.0672 -420.1673
ENERGY: 1200000 2.9464 12.0393 21.5320 0.0000 -10585.9490 1390.4052 0.0000 0.0000 1759.9426 -7399.0836 303.3025 -9159.0261 -7408.3094 298.8727 -252.1383 -217.6559 30030.7968 -320.8728 -284.5645
ENERGY: 1500000 4.2801 12.5213 21.9515 0.0000 -10644.3962 1467.7491 0.0000 0.0000 1779.5133 -7358.3809 306.6753 -9137.8942 -7404.9338 299.6818 936.1139 1032.1288 28885.5379 -258.5959 -213.1459
TCL: Running FEP window   9: Lambda1 0.5999999999999996 Lambda2 0.5499999999999996 [dLambda -0.050000000000000044]
TCL: Setting parameter firsttimestep to 0
TCL: Setting parameter alchLambda to 0.5999999999999996
Info: NONBONDED TABLE R-SQUARED SPACING: 0.0625
Info: NONBONDED TABLE SIZE: 705 POINTS
TCL: Setting parameter alchLambda2 to 0.5499999999999996
Info: NONBONDED TABLE R-SQUARED SPACING: 0.0625
Info: NONBONDED TABLE SIZE: 705 POINTS
TCL: Running for 1500000 steps
ETITLE: TS BOND ANGLE DIHED IMPRP ELECT VDW BOUNDARY MISC KINETIC TOTAL TEMP POTENTIAL TOTALAVG TEMPAVG PRESSURE GPRESSURE VOLUME PRESSAVG GPRESSAVG
ENERGY: 0 4.2802 12.5213 21.9515 0.0000 -10643.1773 1468.1164 0.0000 0.0000 1778.6416 -7357.6664 306.5251 -9136.3079 -7357.6664 306.5251 929.8803 1021.2689 28885.5379 929.8803 1021.2689
ENERGY: 300000 6.3890 13.7486 19.2315 0.0000 -10670.9157 1434.4193 0.0000 0.0000 1695.0976 -7502.0297 292.1274 -9197.1273 -7389.9393 301.5539 19.4624 69.2136 29800.8917 29.1849 107.4579
ENERGY: 600000 7.1852 14.6516 20.6383 0.0000 -10538.1392 1334.7893 0.0000 0.0000 1809.0076 -7351.8673 311.7582 -9160.8748 -7384.1270 301.4946 -393.2099 -299.7751 29565.3909 -204.1871 -117.8718
ENERGY: 900000 10.5859 16.1012 24.0686 0.0000 -10555.0123 1437.7403 0.0000 0.0000 1741.2631 -7325.2531 300.0834 -9066.5162 -7380.8566 300.8170 149.9298 173.3854 30159.7913 -156.3729 -66.9117
ENERGY: 1200000 5.9275 17.8500 21.4311 0.0000 -10605.6316 1411.5537 0.0000 0.0000 1727.8023 -7421.0671 297.7636 -9148.8693 -7379.4409 300.7268 267.0865 280.8803 29451.2889 -56.0426 28.1197
ENERGY: 1500000 9.0786 15.7529 19.9628 0.0000 -10621.1990 1405.4141 0.0000 0.0000 1736.1177 -7434.8730 299.1966 -9170.9906 -7388.8388 300.5629 -350.8379 -248.6511 29843.4696 -58.7050 27.1733
TCL: Running FEP window  10: Lambda1 0.5499999999999996 Lambda2 0.4999999999999996 [dLambda -0.04999999999999999]
TCL: Setting parameter firsttimestep to 0
TCL: Setting parameter alchLambda to 0.5499999999999996
Info: NONBONDED TABLE R-SQUARED SPACING: 0.0625
Info: NONBONDED TABLE SIZE: 705 POINTS
TCL: Setting parameter alchLambda2 to 0.4999999999999996
Info: NONBONDED TABLE R-SQUARED SPACING: 0.0625
Info: NONBONDED TABLE SIZE: 705 POINTS
TCL: Running for 1500000 steps
ETITLE: TS BOND ANGLE DIHED IMPRP ELECT VDW BOUNDARY MISC KINETIC TOTAL TEMP POTENTIAL TOTALAVG TEMPAVG PRESSURE GPRESSURE VOLUME PRESSAVG GPRESSAVG
ENERGY: 0 9.0786 15.7529 19.9628 0.0000 -10619.8027 1405.7850 0.0000 0.0000 1735.2375 -7433.9859 299.0449 -9169.2234 -7433.9859 299.0449 -340.7403 -256.9998 29843.4696 -340.7403 -256.9998
ENERGY: 300000 11.1656 16.0749 22.3571 0.0000 -10427.6592 1324.8505 0.0000 0.0000 1759.6740 -7293.5372 303.2562 -9053.2111 -7383.1195 300.9210 -243.2773 -205.1186 29992.6174 -213.5264 -178.5170
ENERGY: 600000 3.3787 12.2878 22.1047 0.0000 -10570.4552 1320.1304 0.0000 0.0000 1702.6207 -7509.9329 293.4239 -9212.5536 -7410.4740 299.1183 -914.5393 -818.3614 29574.9192 -177.8604 -130.9670
ENERGY: 900000 5.2111 12.3792 23.5003 0.0000 -10483.5056 1362.4096 0.0000 0.0000 1734.1376 -7345.8680 298.8554 -9080.0056 -7408.6131 299.4811 -431.3112 -367.9261 30117.3808 -165.2356 -114.2478
ENERGY: 1200000 7.0462 15.4501 20.9962 0.0000 -10630.3153 1436.3920 0.0000 0.0000 1752.4873 -7397.9434 302.0177 -9150.4307 -7391.1280 298.6976 153.7719 226.3631 29901.3018 -83.4011 -32.2723
ENERGY: 1500000 7.9533 12.6493 21.7921 0.0000 -10564.9310 1374.8718 0.0000 0.0000 1724.1170 -7423.5476 297.1285 -9147.6646 -7392.1785 298.4804 -550.6250 -419.0489 30089.1740 -107.6681 -52.0434
TCL: Running FEP window  11: Lambda1 0.4999999999999996 Lambda2 0.4499999999999996 [dLambda -0.04999999999999999]
TCL: Setting parameter firsttimestep to 0
TCL: Setting parameter alchLambda to 0.4999999999999996
Info: NONBONDED TABLE R-SQUARED SPACING: 0.0625
Info: NONBONDED TABLE SIZE: 705 POINTS
TCL: Setting parameter alchLambda2 to 0.4499999999999996
Info: NONBONDED TABLE R-SQUARED SPACING: 0.0625
Info: NONBONDED TABLE SIZE: 705 POINTS
TCL: Running for 1500000 steps
ETITLE: TS BOND ANGLE DIHED IMPRP ELECT VDW BOUNDARY MISC KINETIC TOTAL TEMP POTENTIAL TOTALAVG TEMPAVG PRESSURE GPRESSURE VOLUME PRESSAVG GPRESSAVG
ENERGY: 0 7.9533 12.6493 21.7921 0.0000 -10564.3445 1374.8241 0.0000 0.0000 1723.2165 -7423.9093 296.9733 -9147.1257 -7423.9093 296.9733 -515.1146 -430.0694 30089.1740 -515.1146 -430.0694
ENERGY: 300000 8.9227 11.4795 23.6529 0.0000 -10545.5352 1366.0627 0.0000 0.0000 1744.5548 -7390.8625 300.6507 -9135.4173 -7386.2748 300.5267 -234.2032 -214.2562 29982.7425 -128.8383 -77.8600
ENERGY: 600000 6.0768 11.7243 19.4761 0.0000 -10491.8946 1333.8988 0.0000 0.0000 1722.5858 -7398.1327 296.8646 -9120.7185 -7377.9084 299.3742 -696.2078 -636.0956 30142.5474 -216.4960 -156.2057
ENERGY: 900000 6.7179 12.7804 20.0906 0.0000 -10688.7203 1417.7618 0.0000 0.0000 1708.8884 -7522.4814 294.5040 -9231.3697 -7395.5717 299.3122 -165.7135 -51.7792 29826.7257 -68.8682 11.3055
ENERGY: 1200000 4.8404 13.2531 19.5088 0.0000 -10599.5707 1377.5168 0.0000 0.0000 1706.5589 -7477.8928 294.1026 -9184.4517 -7400.4868 299.5249 -469.1119 -440.2055 29957.5296 -82.2665 -9.4038
ENERGY: 1500000 7.8298 15.5957 19.3399 0.0000 -10507.1861 1380.3244 0.0000 0.0000 1774.1244 -7309.9718 305.7466 -9084.0963 -7404.1433 299.6563 -356.8420 -261.8529 30121.7718 -133.8082 -57.9444
TCL: Running FEP window  12: Lambda1 0.4499999999999996 Lambda2 0.39999999999999963 [dLambda -0.04999999999999999]
TCL: Setting parameter firsttimestep to 0
TCL: Setting parameter alchLambda to 0.4499999999999996
Info: NONBONDED TABLE R-SQUARED SPACING: 0.0625
Info: NONBONDED TABLE SIZE: 705 POINTS
TCL: Setting parameter alchLambda2 to 0.39999999999999963
Info: NONBONDED TABLE R-SQUARED SPACING: 0.0625
Info: NONBONDED TABLE SIZE: 705 POINTS
TCL: Running for 1500000 steps
ETITLE: TS BOND ANGLE DIHED IMPRP ELECT VDW BOUNDARY MISC KINETIC TOTAL TEMP POTENTIAL TOTALAVG TEMPAVG PRESSURE GPRESSURE VOLUME PRESSAVG GPRESSAVG
ENERGY: 0 7.8299 15.5957 19.3399 0.0000 -10507.1866 1381.4417 0.0000 0.0000 1773.2820 -7309.6975 305.6014 -9082.9795 -7309.6975 305.6014 -357.6522 -267.1282 30121.7718 -357.6522 -267.1282
ENERGY: 300000 10.9207 16.9800 24.6513 0.0000 -10434.7319 1319.7767 0.0000 0.0000 1692.0060 -7370.3972 291.5946 -9062.4032 -7360.2119 301.9417 -870.9231 -847.4447 30547.2914 -370.8884 -310.5048
ENERGY: 600000 6.3582 12.4574 24.6619 0.0000 -10585.7641 1403.7348 0.0000 0.0000 1770.8639 -7367.6879 305.1847 -9138.5518 -7382.5188 302.1593 328.8836 442.4561 29382.0722 -178.3830 -109.4514
ENERGY: 900000 8.5579 14.0062 18.9149 0.0000 -10515.2055 1353.8200 0.0000 0.0000 1807.3632 -7312.5432 311.4748 -9119.9064 -7377.9093 303.6847 -641.2544 -599.1011 30241.7344 -364.3374 -300.6705
ENERGY: 1200000 6.6422 13.1437 21.7625 0.0000 -10566.9752 1414.6799 0.0000 0.0000 1762.0608 -7348.6861 303.6676 -9110.7469 -7383.1251 303.1492 128.2593 185.4727 30408.6666 -275.0978 -213.5477
ENERGY: 1500000 7.2634 12.5671 20.9479 0.0000 -10543.8354 1390.9697 0.0000 0.0000 1694.0263 -7418.0610 291.9427 -9112.0872 -7379.5775 301.6338 -518.0762 -413.2868 30266.5429 -267.9014 -203.5564
TCL: Running FEP window  13: Lambda1 0.39999999999999963 Lambda2 0.34999999999999964 [dLambda -0.04999999999999999]
TCL: Setting parameter firsttimestep to 0
TCL: Setting parameter alchLambda to 0.39999999999999963
Info: NONBONDED TABLE R-SQUARED SPACING: 0.0625
Info: NONBONDED TABLE SIZE: 705 POINTS
TCL: Setting parameter alchLambda2 to 0.34999999999999964
Info: NONBONDED TABLE R-SQUARED SPACING: 0.0625
Info: NONBONDED TABLE SIZE: 705 POINTS
TCL: Running for 1500000 steps
ETITLE: TS BOND ANGLE DIHED IMPRP ELECT VDW BOUNDARY MISC KINETIC TOTAL TEMP POTENTIAL TOTALAVG TEMPAVG PRESSURE GPRESSURE VOLUME PRESSAVG GPRESSAVG
ENERGY: 0 7.2634 12.5671 20.9479 0.0000 -10543.8342 1390.3176 0.0000 0.0000 1693.1322 -7419.6059 291.7887 -9112.7381 -7419.6059 291.7887 -537.2381 -428.8951 30266.5429 -537.2381 -428.8951
ENERGY: 300000 6.9594 19.4623 20.8746 0.0000 -10437.9878 1366.9681 0.0000 0.0000 1741.5356 -7282.1878 300.1303 -9023.7234 -7364.7869 298.4886 -302.4527 -261.9990 30737.4123 -222.6620 -159.3003
ENERGY: 600000 9.4433 18.1069 16.3323 0.0000 -10525.3421 1427.9448 0.0000 0.0000 1767.5447 -7285.9701 304.6126 -9053.5148 -7353.8005 300.8265 151.8936 225.4310 29820.3170 -230.4491 -171.0021
ENERGY: 900000 6.5916 15.9316 17.9848 0.0000 -10522.3029 1391.1080 0.0000 0.0000 1721.7603 -7368.9268 296.7223 -9090.6870 -7352.6534 300.9413 36.7107 95.2323 29640.5723 -282.5709 -223.5542
ENERGY: 1200000 8.2009 12.3781 21.5080 0.0000 -10613.8146 1390.9427 0.0000 0.0000 1811.7267 -7369.0581 312.2268 -9180.7848 -7357.9037 301.9192 -361.9335 -304.1984 29732.8501 -248.1886 -180.8105
ENERGY: 1500000 6.6322 12.0875 21.0306 0.0000 -10653.3745 1429.3682 0.0000 0.0000 1739.7305 -7444.5255 299.8193 -9184.2560 -7369.0849 302.2958 255.4742 317.6697 29421.1624 -229.2386 -170.1429
TCL: Running FEP window  14: Lambda1 0.34999999999999964 Lambda2 0.29999999999999966 [dLambda -0.04999999999999999]
TCL: Setting parameter firsttimestep to 0
TCL: Setting parameter alchLambda to 0.34999999999999964
Info: NONBONDED TABLE R-SQUARED SPACING: 0.0625
Info: NONBONDED TABLE SIZE: 705 POINTS
TCL: Setting parameter alchLambda2 to 0.29999999999999966
Info: NONBONDED TABLE R-SQUARED SPACING: 0.0625
Info: NONBONDED TABLE SIZE: 705 POINTS
TCL: Running for 1500000 steps
ETITLE: TS BOND ANGLE DIHED IMPRP ELECT VDW BOUNDARY MISC KINETIC TOTAL TEMP POTENTIAL TOTALAVG TEMPAVG PRESSURE GPRESSURE VOLUME PRESSAVG GPRESSAVG
ENERGY: 0 6.6322 12.0875 21.0306 0.0000 -10653.3763 1430.2182 0.0000 0.0000 1738.8504 -7444.5575 299.6676 -9183.4078 -7444.5575 299.6676 237.4568 316.4754 29421.1624 237.4568 316.4754
ENERGY: 300000 8.1440 20.0276 17.7997 0.0000 -10535.1759 1331.9830 0.0000 0.0000 1723.4609 -7433.7607 297.0154 -9157.2216 -7398.3586 297.5894 -1327.2036 -1268.0757 30268.2079 -279.7842 -189.6448
ENERGY: 600000 7.5192 18.6142 19.4382 0.0000 -10583.4635 1391.0794 0.0000 0.0000 1743.4629 -7403.3496 300.4625 -9146.8125 -7414.9673 297.4626 -322.5647 -250.3360 30101.2553 -278.4676 -193.9581
ENERGY: 900000 6.3589 10.8811 20.5681 0.0000 -10572.4235 1369.5891 0.0000 0.0000 1810.3896 -7354.6366 311.9964 -9165.0262 -7393.7559 300.7390 -292.4864 -222.8076 29734.6944 -223.5600 -144.9086
ENERGY: 1200000 5.1905 14.9404 18.3402 0.0000 -10645.7959 1423.5714 0.0000 0.0000 1743.0821 -7440.6712 300.3969 -9183.7533 -7401.7563 299.7080 -115.0533 -81.2065 29821.4643 -190.0586 -117.7158
ENERGY: 1500000 10.6696 13.3986 20.4058 0.0000 -10661.5823 1366.8641 0.0000 0.0000 1742.8045 -7507.4397 300.3490 -9250.2442 -7403.1310 300.7904 -517.4546 -449.2202 29383.6846 -47.7051 25.5848
TCL: Running FEP window  15: Lambda1 0.29999999999999966 Lambda2 0.24999999999999967 [dLambda -0.04999999999999999]
TCL: Setting parameter firsttimestep to 0
TCL: Setting parameter alchLambda to 0.29999999999999966
Info: NONBONDED TABLE R-SQUARED SPACING: 0.0625
Info: NONBONDED TABLE SIZE: 705 POINTS
TCL: Setting parameter alchLambda2 to 0.24999999999999967
Info: NONBONDED TABLE R-SQUARED SPACING: 0.0625
Info: NONBONDED TABLE SIZE: 705 POINTS
TCL: Running for 1500000 steps
ETITLE: TS BOND ANGLE DIHED IMPRP ELECT VDW BOUNDARY MISC KINETIC TOTAL TEMP POTENTIAL TOTALAVG TEMPAVG PRESSURE GPRESSURE VOLUME PRESSAVG GPRESSAVG
ENERGY: 0 10.6696 13.3986 20.4058 0.0000 -10661.5829 1367.2686 0.0000 0.0000 1741.9495 -7507.8908 300.2017 -9249.8403 -7507.8908 300.2017 -525.0462 -456.2121 29383.6846 -525.0462 -456.2121
ENERGY: 300000 10.5208 16.9912 18.9436 0.0000 -10789.1870 1534.7067 0.0000 0.0000 1775.1393 -7432.8854 305.9215 -9208.0247 -7433.2345 300.3635 1321.7172 1354.3671 28905.1776 202.3623 274.0457
ENERGY: 600000 11.2361 10.6863 19.7662 0.0000 -10517.4905 1330.2028 0.0000 0.0000 1839.1668 -7306.4322 316.9558 -9145.5991 -7399.6071 301.8579 -889.4369 -842.3933 30213.5449 -107.3223 -47.8700
ENERGY: 900000 6.0015 12.4001 21.6348 0.0000 -10526.8698 1393.6869 0.0000 0.0000 1730.5407 -7362.6057 298.2355 -9093.1464 -7379.6524 301.3476 -115.8003 -77.6999 29777.0849 -1.2658 51.3269
ENERGY: 1200000 7.8968 9.9815 21.0343 0.0000 -10506.4121 1378.6101 0.0000 0.0000 1807.9079 -7280.9816 311.5687 -9088.8895 -7373.7972 301.4736 -137.7793 -122.7724 29925.6706 -17.9357 36.2793
ENERGY: 1500000 8.5646 13.9731 18.5889 0.0000 -10710.9601 1455.9148 0.0000 0.0000 1730.2085 -7483.7101 298.1783 -9213.9186 -7380.2595 301.5565 -159.5613 -34.5175 29785.9935 -71.5600 -13.5035
TCL: Running FEP window  16: Lambda1 0.24999999999999967 Lambda2 0.19999999999999968 [dLambda -0.04999999999999999]
TCL: Setting parameter firsttimestep to 0
TCL: Setting parameter alchLambda to 0.24999999999999967
Info: NONBONDED TABLE R-SQUARED SPACING: 0.0625
Info: NONBONDED TABLE SIZE: 705 POINTS
TCL: Setting parameter alchLambda2 to 0.19999999999999968
Info: NONBONDED TABLE R-SQUARED SPACING: 0.0625
Info: NONBONDED TABLE SIZE: 705 POINTS
TCL: Running for 1500000 steps
ETITLE: TS BOND ANGLE DIHED IMPRP ELECT VDW BOUNDARY MISC KINETIC TOTAL TEMP POTENTIAL TOTALAVG TEMPAVG PRESSURE GPRESSURE VOLUME PRESSAVG GPRESSAVG
ENERGY: 0 8.5646 13.9731 18.5889 0.0000 -10710.9593 1456.1524 0.0000 0.0000 1729.3796 -7484.3007 298.0354 -9213.6803 -7484.3007 298.0354 -132.6497 -42.7004 29785.9935 -132.6497 -42.7004
ENERGY: 300000 8.0817 14.4646 21.2292 0.0000 -10563.4485 1434.3990 0.0000 0.0000 1761.5969 -7323.6772 303.5876 -9085.2740 -7402.1580 301.3290 130.4558 179.4068 30051.7375 -4.8719 62.0394
ENERGY: 600000 7.4975 18.9754 22.2848 0.0000 -10657.8212 1443.2520 0.0000 0.0000 1736.8367 -7428.9747 299.3205 -9165.8114 -7396.1716 301.5185 45.2488 96.4084 30014.6649 -15.1347 41.0196
ENERGY: 900000 5.0594 17.5774 19.6905 0.0000 -10612.4905 1470.3277 0.0000 0.0000 1684.4599 -7415.3755 290.2941 -9099.8354 -7396.4913 301.1914 637.9798 689.3016 29599.1514 179.6077 229.7039
ENERGY: 1200000 7.0216 11.2894 23.0474 0.0000 -10634.3314 1398.4837 0.0000 0.0000 1713.9780 -7480.5114 295.3812 -9194.4894 -7394.1903 302.1234 -206.9404 -147.8382 29662.0191 104.5058 161.9776
ENERGY: 1500000 8.5833 16.5887 20.0302 0.0000 -10453.5750 1340.7758 0.0000 0.0000 1747.9574 -7319.6395 301.2371 -9067.5970 -7386.6010 301.3802 -400.4640 -354.4698 29679.3868 119.4616 175.1273
TCL: Running FEP window  17: Lambda1 0.19999999999999968 Lambda2 0.1499999999999997 [dLambda -0.04999999999999999]
TCL: Setting parameter firsttimestep to 0
TCL: Setting parameter alchLambda to 0.19999999999999968
Info: NONBONDED TABLE R-SQUARED SPACING: 0.0625
Info: NONBONDED TABLE SIZE: 705 POINTS
TCL: Setting parameter alchLambda2 to 0.1499999999999997
Info: NONBONDED TABLE R-SQUARED SPACING: 0.0625
Info: NONBONDED TABLE SIZE: 705 POINTS
TCL: Running for 1500000 steps
ETITLE: TS BOND ANGLE DIHED IMPRP ELECT VDW BOUNDARY MISC KINETIC TOTAL TEMP POTENTIAL TOTALAVG TEMPAVG PRESSURE GPRESSURE VOLUME PRESSAVG GPRESSAVG
ENERGY: 0 8.5834 16.5887 20.0302 0.0000 -10453.5748 1340.4632 0.0000 0.0000 1747.1040 -7320.8053 301.0900 -9067.9094 -7320.8053 301.0900 -435.7875 -362.6802 29679.3868 -435.7875 -362.6802
ENERGY: 300000 6.6675 12.0242 21.0683 0.0000 -10585.0251 1422.0696 0.0000 0.0000 1715.2680 -7407.9275 295.6035 -9123.1955 -7377.8114 299.6371 27.7367 71.4072 29558.6643 -168.3878 -118.6956
ENERGY: 600000 3.6699 14.6178 20.3977 0.0000 -10637.5663 1404.7301 0.0000 0.0000 1717.1169 -7477.0339 295.9221 -9194.1508 -7397.3430 299.6698 -346.9416 -292.0923 29908.5008 -286.6248 -240.9201
ENERGY: 900000 5.4712 14.6712 17.0417 0.0000 -10525.0363 1369.8418 0.0000 0.0000 1768.9546 -7349.0558 304.8556 -9118.0105 -7389.9126 300.0125 -380.5406 -297.9361 29976.8071 -214.0975 -163.1955
ENERGY: 1200000 8.4268 9.6872 21.3872 0.0000 -10476.8971 1415.1479 0.0000 0.0000 1751.7839 -7270.4641 301.8965 -9022.2480 -7384.1576 299.2461 383.7543 455.5008 29618.0600 -208.5610 -155.0133
ENERGY: 1500000 3.7208 11.5646 19.8632 0.0000 -10689.2751 1491.2073 0.0000 0.0000 1657.4856 -7505.4336 285.6454 -9162.9192 -7394.6923 297.7510 672.3984 762.6957 29770.9843 -92.2615 -31.9216
TCL: Running FEP window  18: Lambda1 0.1499999999999997 Lambda2 0.09999999999999969 [dLambda -0.05 ]
TCL: Setting parameter firsttimestep to 0
TCL: Setting parameter alchLambda to 0.1499999999999997
Info: NONBONDED TABLE R-SQUARED SPACING: 0.0625
Info: NONBONDED TABLE SIZE: 705 POINTS
TCL: Setting parameter alchLambda2 to 0.09999999999999969
Info: NONBONDED TABLE R-SQUARED SPACING: 0.0625
Info: NONBONDED TABLE SIZE: 705 POINTS
TCL: Running for 1500000 steps
ETITLE: TS BOND ANGLE DIHED IMPRP ELECT VDW BOUNDARY MISC KINETIC TOTAL TEMP POTENTIAL TOTALAVG TEMPAVG PRESSURE GPRESSURE VOLUME PRESSAVG GPRESSAVG
ENERGY: 0 3.7208 11.5646 19.8632 0.0000 -10689.2750 1491.4878 0.0000 0.0000 1656.6435 -7505.9951 285.5003 -9162.6386 -7505.9951 285.5003 679.4322 759.2274 29770.9843 679.4322 759.2274
ENERGY: 300000 7.7139 15.7223 22.7199 0.0000 -10619.7635 1451.4853 0.0000 0.0000 1742.3172 -7379.8049 300.2650 -9122.1221 -7403.8931 296.6199 -11.9404 76.1062 29690.8057 51.0373 123.7697
ENERGY: 600000 7.3541 14.7082 22.6244 0.0000 -10555.2660 1441.8688 0.0000 0.0000 1748.7843 -7319.9262 301.3795 -9068.7104 -7401.1648 299.3759 493.5767 502.8224 29322.4549 166.5669 233.3527
ENERGY: 900000 4.1376 11.4156 21.5295 0.0000 -10603.1893 1381.0375 0.0000 0.0000 1711.9698 -7473.0993 295.0351 -9185.0691 -7408.5306 298.5592 -445.7583 -445.6741 29971.3111 117.2489 177.3951
ENERGY: 1200000 8.7425 12.7368 23.6488 0.0000 -10467.9868 1367.3258 0.0000 0.0000 1795.6125 -7259.9205 309.4498 -9055.5329 -7397.1013 299.5104 -83.1568 -58.4897 29598.6979 19.2632 81.3970
ENERGY: 1500000 5.4131 23.6427 20.6655 0.0000 -10570.3642 1429.2828 0.0000 0.0000 1722.4803 -7368.8798 296.8464 -9091.3601 -7380.5733 300.3341 184.6157 247.6278 29620.1752 -35.0329 29.9607
TCL: Running FEP window  19: Lambda1 0.09999999999999969 Lambda2 0.049999999999999684 [dLambda -0.05 ]
TCL: Setting parameter firsttimestep to 0
TCL: Setting parameter alchLambda to 0.09999999999999969
Info: NONBONDED TABLE R-SQUARED SPACING: 0.0625
Info: NONBONDED TABLE SIZE: 705 POINTS
TCL: Setting parameter alchLambda2 to 0.049999999999999684
Info: NONBONDED TABLE R-SQUARED SPACING: 0.0625
Info: NONBONDED TABLE SIZE: 705 POINTS
TCL: Running for 1500000 steps
ETITLE: TS BOND ANGLE DIHED IMPRP ELECT VDW BOUNDARY MISC KINETIC TOTAL TEMP POTENTIAL TOTALAVG TEMPAVG PRESSURE GPRESSURE VOLUME PRESSAVG GPRESSAVG
ENERGY: 0 5.4131 23.6427 20.6655 0.0000 -10570.3655 1429.8934 0.0000 0.0000 1721.6409 -7369.1099 296.7017 -9090.7508 -7369.1099 296.7017 155.9326 244.8225 29620.1752 155.9326 244.8225
ENERGY: 300000 7.4625 17.0428 24.1629 0.0000 -10647.5693 1440.6368 0.0000 0.0000 1702.7370 -7455.5273 293.4439 -9158.2642 -7409.7972 295.1472 219.9000 300.8295 29568.4899 321.1476 395.5620
ENERGY: 600000 9.1073 13.7626 21.5523 0.0000 -10634.3204 1444.6298 0.0000 0.0000 1741.2638 -7404.0047 300.0835 -9145.2684 -7418.5107 297.3150 464.0036 560.4318 29370.4191 179.3029 247.5119
ENERGY: 900000 7.9011 12.3669 20.9398 0.0000 -10609.0505 1421.7482 0.0000 0.0000 1756.2492 -7389.8454 302.6660 -9146.0946 -7417.8152 298.6903 -126.5943 -21.5208 29834.6469 45.6086 119.3673
ENERGY: 1200000 5.0800 17.2611 22.5856 0.0000 -10620.9828 1463.7192 0.0000 0.0000 1709.3694 -7402.9675 294.5869 -9112.3369 -7419.0436 297.8225 404.5232 457.8872 29767.2309 152.8776 224.1801
ENERGY: 1500000 6.6199 13.0009 16.9355 0.0000 -10596.2750 1405.9953 0.0000 0.0000 1803.7828 -7349.9406 310.8578 -9153.7235 -7410.8653 299.2387 -298.2383 -221.0719 29982.1451 146.1952 219.4576
TCL: Running FEP window  20: Lambda1 0.049999999999999684 Lambda2 0.0    [dLambda -0.049999999999999684]
TCL: Setting parameter firsttimestep to 0
TCL: Setting parameter alchLambda to 0.049999999999999684
Info: NONBONDED TABLE R-SQUARED SPACING: 0.0625
Info: NONBONDED TABLE SIZE: 705 POINTS
TCL: Setting parameter alchLambda2 to 0.0
Info: NONBONDED TABLE R-SQUARED SPACING: 0.0625
Info: NONBONDED TABLE SIZE: 705 POINTS
TCL: Running for 1500000 steps
ETITLE: TS BOND ANGLE DIHED IMPRP ELECT VDW BOUNDARY MISC KINETIC TOTAL TEMP POTENTIAL TOTALAVG TEMPAVG PRESSURE GPRESSURE VOLUME PRESSAVG GPRESSAVG
ENERGY: 0 6.6199 13.0009 16.9355 0.0000 -10596.2760 1404.5191 0.0000 0.0000 1802.9658 -7352.2348 310.7170 -9155.2006 -7352.2348 310.7170 -318.7186 -230.9912 29982.1451 -318.7186 -230.9912
ENERGY: 300000 7.3584 13.1719 22.5720 0.0000 -10484.0544 1352.7177 0.0000 0.0000 1738.3567 -7349.8778 299.5825 -9088.2345 -7347.2258 302.6656 -465.4247 -381.7357 29880.3265 -482.8553 -397.7977
ENERGY: 600000 6.7950 17.0576 22.6751 0.0000 -10706.4040 1450.0122 0.0000 0.0000 1747.0607 -7462.8033 301.0825 -9209.8640 -7373.6638 300.4768 218.9482 197.5139 29194.1525 -159.3277 -91.3602
ENERGY: 900000 5.8226 12.7947 18.9000 0.0000 -10530.9271 1414.4561 0.0000 0.0000 1786.2902 -7292.6636 307.8432 -9078.9538 -7367.8333 302.5260 -13.5965 35.0509 29818.6550 -110.6681 -47.8647
ENERGY: 1200000 5.6294 17.1716 20.5057 0.0000 -10677.6223 1493.8022 0.0000 0.0000 1743.2136 -7397.2998 300.4195 -9140.5135 -7371.0513 301.5732 932.1928 997.4493 29348.5203 -42.2998 23.8780
ENERGY: 1500000 5.7161 15.7053 22.7651 0.0000 -10461.3438 1329.0313 0.0000 0.0000 1731.2539 -7356.8720 298.3584 -9088.1259 -7371.0380 301.6695 -729.6984 -646.2014 29906.8145 -21.9559 44.6345
TCL: Exiting due to exit command.
