Info: SIMULATION PARAMETERS:
Info: TIMESTEP               2
Info: NUMBER OF STEPS        0
Info: STEPS PER CYCLE        10
Info: PERIODIC CELL BASIS 1  34.6773 0 0
Info: PERIODIC CELL BASIS 2  0 29.2125 0
Info: PERIODIC CELL BASIS 3  0 0 29.174
Info: PERIODIC CELL CENTER   0 0 0
Info: WRAPPING WATERS AROUND PERIODIC BOUNDARIES ON OUTPUT.
Info: WRAPPING ALL CLUSTERS AROUND PERIODIC BOUNDARIES ON OUTPUT.
Info: FIRST LDB TIMESTEP     50
Info: LAST LDB TIMESTEP     -1
Info: HOM BACKGROUND SCALING 1
Info: PME BACKGROUND SCALING 1
Info: MIN ATOMS PER PATCH    40
Info: EMPTY PATCH LOAD       40 ATOMS
Info: VELOCITY FILE          mobley_7859387_equil.vel
Info: CENTER OF MASS MOVING INITIALLY? NO
Info: DIELECTRIC             1
Info: EXCLUDE                SCALED ONE-FOUR
Info: 1-4 ELECTROSTATICS SCALED BY 0.833333
Info: MODIFIED 1-4 VDW PARAMETERS WILL BE USED
Info: DCD FILENAME           mobley_7859387_prod.dcd
Info: DCD FREQUENCY          100000
Info: DCD FIRST STEP         100000
Info: DCD FILE WILL CONTAIN UNIT CELL DATA
Info: XST FILENAME           mobley_7859387_prod.xst
Info: XST FREQUENCY          100000
Info: NO VELOCITY DCD OUTPUT
Info: NO FORCE DCD OUTPUT
Info: OUTPUT FILENAME        mobley_7859387_prod
Info: BINARY OUTPUT FILES WILL BE USED
Info: RESTART FILENAME       mobley_7859387_prod.restart
Info: RESTART FREQUENCY      100000
Info: BINARY RESTART FILES WILL BE USED
Info: CUTOFF                 9
Info: PAIRLIST DISTANCE      11
Info: PAIRLIST SHRINK RATE   0.01
Info: PAIRLIST GROW RATE     0.01
Info: PAIRLIST TRIGGER       0.3
Info: PAIRLISTS PER CYCLE    2
Info: PAIRLISTS ENABLED
Info: MARGIN                 2
Info: HYDROGEN GROUP CUTOFF  2.5
Info: PATCH DIMENSION        15.5
Info: ENERGY OUTPUT STEPS    100000
Info: ENERGY EVALUATION STEPS    100000
Info: OUTPUT ENERGY PRECISION 4
Info: CROSSTERM ENERGY INCLUDED IN DIHEDRAL
Info: TIMING OUTPUT STEPS    1000000
Info: PRESSURE OUTPUT STEPS  100000
Info: ALCHEMICAL FEP ON
Info: FEP CURRENT LAMBDA VALUE     0
Info: FEP COMPARISON LAMBDA VALUE  0.05
Info: FEP INTRA-ALCHEMICAL NON-BONDED INTERACTIONS WILL BE RETAINED
Info: FEP INTRA-ALCHEMICAL BONDED INTERACTIONS WILL BE RETAINED
Info: FEP VDW SHIFTING COEFFICIENT 5
Info: FEP ELEC. ACTIVE FOR ANNIHILATED PARTICLES BETWEEN LAMBDA = 0 AND LAMBDA = 0.5
Info: FEP ELEC. ACTIVE FOR EXNIHILATED PARTICLES BETWEEN LAMBDA = 0.5 AND LAMBDA = 1
Info: FEP VDW ACTIVE FOR ANNIHILATED PARTICLES BETWEEN LAMBDA = 0 AND LAMBDA = 1
Info: FEP VDW ACTIVE FOR EXNIHILATED PARTICLES BETWEEN LAMBDA = 0 AND LAMBDA = 1
Info: FEP BOND ACTIVE FOR ANNIHILATED PARTICLES BETWEEN LAMBDA = 1 AND LAMBDA = 1
Info: FEP BOND ACTIVE FOR EXNIHILATED PARTICLES BETWEEN LAMBDA = 0 AND LAMBDA = 0
Info: LANGEVIN DYNAMICS ACTIVE
Info: LANGEVIN TEMPERATURE   300
Info: LANGEVIN USING BBK INTEGRATOR
Info: LANGEVIN DAMPING COEFFICIENT IS 1 INVERSE PS
Info: LANGEVIN DYNAMICS APPLIED TO HYDROGENS
Info: LANGEVIN PISTON PRESSURE CONTROL ACTIVE
Info:        TARGET PRESSURE IS 1.01325 BAR
Info:     OSCILLATION PERIOD IS 50 FS
Info:             DECAY TIME IS 25 FS
Info:     PISTON TEMPERATURE IS 300 K
Info:       PRESSURE CONTROL IS GROUP-BASED
Info:    INITIAL STRAIN RATE IS -0.000380686 -0.000380686 -0.000380686
Info:       CELL FLUCTUATION IS ISOTROPIC
Info: PARTICLE MESH EWALD (PME) ACTIVE
Info: PME TOLERANCE               1e-06
Info: PME EWALD COEFFICIENT       0.348832
Info: PME INTERPOLATION ORDER     4
Info: PME GRID DIMENSIONS         36 32 32
Info: PME MAXIMUM GRID SPACING    1
Info: PME CALCULATION WILL BE PERFORMED ON GPU
Info: FULL ELECTROSTATIC EVALUATION FREQUENCY      2
Info: USING VERLET I (r-RESPA) MTS SCHEME.
Info: C1 SPLITTING OF LONG RANGE ELECTROSTATICS
Info: PLACING ATOMS IN PATCHES BY HYDROGEN GROUPS
Info: RIGID BONDS TO HYDROGEN : ALL
Info:         ERROR TOLERANCE : 1e-08
Info:          MAX ITERATIONS : 100
Info: RIGID WATER USING SETTLE ALGORITHM
Info: RANDOM NUMBER SEED     1744010909
Info: USE HYDROGEN BONDS?    NO
Info: Using AMBER format force field!
Info: AMBER PARM FILE        mobley_7859387.prmtop
Info: COORDINATE PDB         mobley_7859387.pdb
Info: Exclusions will be read from PARM file!
Info: SCNB (VDW SCALING)     2
Info: USING ARITHMETIC MEAN TO COMBINE L-J SIGMA PARAMETERS
Info: BINARY COORDINATES     mobley_7859387_equil.coor
Info: SUMMARY OF PARAMETERS:
Info: 7 BONDS
Info: 8 ANGLES
Info:   8 HARMONIC
Info:   0 COSINE-BASED
Info: 11 DIHEDRAL
Info: 0 IMPROPER
Info: 0 CROSSTERM
Info: 0 VDW
Info: 28 VDW_PAIRS
Info: 0 NBTHOLE_PAIRS
Info: To read alchdata from file: mobley_7859387.pdb
Info: To read alchflag data from column: 5
Info: STRUCTURE SUMMARY:
Info: 2905 ATOMS
Info: 2904 BONDS
Info: 39 ANGLES
Info: 62 DIHEDRALS
Info: 0 IMPROPERS
Info: 0 CROSSTERMS
Info: 2994 EXCLUSIONS
Info: 2897 RIGID BONDS
Info: ALCH: 0 ATOMS TO DISAPPEAR IN FINAL STATE
Info: ALCH: 22 ATOMS TO APPEAR IN FINAL STATE
Info: 5818 DEGREES OF FREEDOM
Info: 969 HYDROGEN GROUPS
Info: 4 ATOMS IN LARGEST HYDROGEN GROUP
Info: 969 MIGRATION GROUPS
Info: 4 ATOMS IN LARGEST MIGRATION GROUP
Info: TOTAL MASS = 17427.6 amu
Info: TOTAL CHARGE = 0.000199953 e
Info: MASS DENSITY = 0.979233 g/cm^3
Info: ATOM DENSITY = 0.0982962 atoms/A^3
Info: ADDED 0 IMPLICIT EXCLUSIONS
Info: NONBONDED TABLE R-SQUARED SPACING: 0.0625
Info: NONBONDED TABLE SIZE: 705 POINTS
Info: REMOVING COM VELOCITY -0.149299 -0.0268911 -0.0830872
Info: Use 3D box decompostion in PME FFT.
Info: Updated CUDA force table with 4096 elements.
Info: Updated CUDA LJ table with 7 x 7 elements.
Info: Found 25 unique exclusion lists needing 80 bytes
TCL: Running for 1500000 steps
ETITLE: TS BOND ANGLE DIHED IMPRP ELECT VDW BOUNDARY MISC KINETIC TOTAL TEMP POTENTIAL TOTALAVG TEMPAVG PRESSURE GPRESSURE VOLUME PRESSAVG GPRESSAVG
ENERGY: 0 1.4886 8.4663 3.5535 0.0000 -10589.2748 1463.6134 0.0000 0.0000 1758.9753 -7353.1777 304.2821 -9112.1530 -7353.1777 304.2821 338.0670 412.8429 29553.5463 338.0670 412.8429
ENERGY: 300000 4.3296 9.6666 3.7842 0.0000 -10508.6787 1398.7693 0.0000 0.0000 1764.8540 -7327.2750 305.2991 -9092.1291 -7358.7415 303.7916 -215.9377 -139.6795 29631.0432 5.9912 67.0669
ENERGY: 600000 2.8173 9.3639 3.4979 0.0000 -10480.1537 1406.6640 0.0000 0.0000 1743.4970 -7314.3136 301.6045 -9057.8106 -7370.4442 300.8969 -57.2738 -19.2642 29707.1079 -19.9182 40.4956
ENERGY: 900000 2.9194 7.0756 4.2329 0.0000 -10441.5798 1363.6814 0.0000 0.0000 1731.2313 -7332.4392 299.4827 -9063.6705 -7353.2036 301.2174 -465.8947 -376.7611 29788.8846 -24.1843 27.3192
ENERGY: 1200000 4.5660 6.2636 5.4708 0.0000 -10512.5944 1357.4780 0.0000 0.0000 1786.6774 -7352.1386 309.0742 -9138.8159 -7349.9794 301.6268 -1016.2430 -911.4777 29866.2212 -84.9815 -29.2697
ENERGY: 1500000 2.3811 9.8835 4.6052 0.0000 -10460.7203 1359.8670 0.0000 0.0000 1732.0682 -7351.9152 299.6275 -9083.9834 -7344.4010 302.2289 -547.8135 -446.7042 29663.5785 -94.5340 -32.7582
TCL: Running FEP window   2: Lambda1 0.05   Lambda2 0.1    [dLambda 0.05  ]
TCL: Setting parameter firsttimestep to 0
TCL: Setting parameter alchLambda to 0.05
Info: NONBONDED TABLE R-SQUARED SPACING: 0.0625
Info: NONBONDED TABLE SIZE: 705 POINTS
TCL: Setting parameter alchLambda2 to 0.1
Info: NONBONDED TABLE R-SQUARED SPACING: 0.0625
Info: NONBONDED TABLE SIZE: 705 POINTS
TCL: Running for 1500000 steps
ETITLE: TS BOND ANGLE DIHED IMPRP ELECT VDW BOUNDARY MISC KINETIC TOTAL TEMP POTENTIAL TOTALAVG TEMPAVG PRESSURE GPRESSURE VOLUME PRESSAVG GPRESSAVG
ENERGY: 0 2.3811 9.8835 4.6052 0.0000 -10460.7207 1364.0700 0.0000 0.0000 1731.1906 -7348.5902 299.4757 -9079.7808 -7348.5902 299.4757 -530.6598 -440.2810 29663.5785 -530.6598 -440.2810
ENERGY: 300000 3.2251 9.2833 4.8965 0.0000 -10492.4104 1392.9126 0.0000 0.0000 1714.3711 -7367.7218 296.5661 -9082.0929 -7306.2603 301.7176 -452.5452 -358.1386 30008.6989 -216.7443 -161.6019
ENERGY: 600000 1.1577 11.2116 4.0781 0.0000 -10529.8169 1420.0983 0.0000 0.0000 1681.2105 -7412.0608 290.8297 -9093.2713 -7336.1288 299.6879 -363.0131 -313.9495 30062.4312 -185.2087 -133.8525
ENERGY: 900000 4.0162 10.7801 6.8105 0.0000 -10578.0023 1489.2134 0.0000 0.0000 1705.4093 -7361.7728 295.0158 -9067.1821 -7344.3853 298.3363 707.1820 814.9212 29476.0795 -59.3458 -1.8811
ENERGY: 1200000 2.3917 6.5885 5.3476 0.0000 -10452.5221 1402.5886 0.0000 0.0000 1760.2226 -7275.3832 304.4979 -9035.6058 -7345.5792 298.3635 -116.6410 -16.9083 29741.1423 -20.5073 36.5731
ENERGY: 1500000 1.3482 8.6679 5.4491 0.0000 -10532.5761 1407.3667 0.0000 0.0000 1687.3995 -7422.3446 291.9003 -9109.7441 -7351.2484 297.9393 -269.2329 -214.5379 29815.5794 -76.4255 -20.1966
TCL: Running FEP window   3: Lambda1 0.1    Lambda2 0.15000000000000002 [dLambda 0.05000000000000002]
TCL: Setting parameter firsttimestep to 0
TCL: Setting parameter alchLambda to 0.1
Info: NONBONDED TABLE R-SQUARED SPACING: 0.0625
Info: NONBONDED TABLE SIZE: 705 POINTS
TCL: Setting parameter alchLambda2 to 0.15000000000000002
Info: NONBONDED TABLE R-SQUARED SPACING: 0.0625
Info: NONBONDED TABLE SIZE: 705 POINTS
TCL: Running for 1500000 steps
ETITLE: TS BOND ANGLE DIHED IMPRP ELECT VDW BOUNDARY MISC KINETIC TOTAL TEMP POTENTIAL TOTALAVG TEMPAVG PRESSURE GPRESSURE VOLUME PRESSAVG GPRESSAVG
ENERGY: 0 1.3482 8.6679 5.4491 0.0000 -10532.5758 1411.3239 0.0000 0.0000 1686.5319 -7419.2548 291.7502 -9105.7867 -7419.2548 291.7502 -287.9413 -205.0450 29815.5794 -287.9413 -205.0450
ENERGY: 300000 2.2793 10.8620 4.7465 0.0000 -10596.7350 1462.0839 0.0000 0.0000 1701.6645 -7415.0989 294.3680 -9116.7634 -7370.5724 299.0427 49.5013 160.5268 29801.2285 -93.0140 -20.1346
ENERGY: 600000 1.1491 12.6682 3.7719 0.0000 -10435.3506 1405.0003 0.0000 0.0000 1744.9427 -7267.8183 301.8546 -9012.7610 -7345.5085 299.9805 -263.1086 -180.0020 30307.2354 -305.3089 -232.1010
ENERGY: 900000 1.7963 8.2951 6.4736 0.0000 -10590.5438 1401.1183 0.0000 0.0000 1750.3830 -7422.4773 302.7957 -9172.8604 -7353.9832 300.4044 -475.3968 -462.2470 30083.1045 -283.0328 -219.6979
ENERGY: 1200000 4.5179 7.8452 4.7204 0.0000 -10579.6993 1445.0859 0.0000 0.0000 1680.1445 -7437.3854 290.6453 -9117.5299 -7363.8111 298.9303 243.5894 339.9967 29327.1073 -197.6398 -123.0460
ENERGY: 1500000 2.9195 7.6140 4.0561 0.0000 -10495.6732 1369.1252 0.0000 0.0000 1751.9706 -7359.9878 303.0704 -9111.9584 -7364.9968 298.7948 -421.2282 -337.5029 29440.6180 -207.5760 -140.6613
TCL: Running FEP window   4: Lambda1 0.15000000000000002 Lambda2 0.2    [dLambda 0.04999999999999999]
TCL: Setting parameter firsttimestep to 0
TCL: Setting parameter alchLambda to 0.15000000000000002
Info: NONBONDED TABLE R-SQUARED SPACING: 0.0625
Info: NONBONDED TABLE SIZE: 705 POINTS
TCL: Setting parameter alchLambda2 to 0.2
Info: NONBONDED TABLE R-SQUARED SPACING: 0.0625
Info: NONBONDED TABLE SIZE: 705 POINTS
TCL: Running for 1500000 steps
ETITLE: TS BOND ANGLE DIHED IMPRP ELECT VDW BOUNDARY MISC KINETIC TOTAL TEMP POTENTIAL TOTALAVG TEMPAVG PRESSURE GPRESSURE VOLUME PRESSAVG GPRESSAVG
ENERGY: 0 2.9195 7.6140 4.0561 0.0000 -10495.6746 1369.8821 0.0000 0.0000 1751.1325 -7360.0705 302.9254 -9111.2029 -7360.0705 302.9254 -414.1482 -329.9281 29440.6180 -414.1482 -329.9281
ENERGY: 300000 1.2459 5.9889 4.9803 0.0000 -10481.6909 1375.9864 0.0000 0.0000 1727.6859 -7365.8036 298.8694 -9093.4894 -7356.7088 299.1699 -482.6980 -403.1451 29704.6617 -100.1317 -24.1771
ENERGY: 600000 3.3639 6.4963 3.4521 0.0000 -10584.4464 1405.9549 0.0000 0.0000 1702.7886 -7462.3906 294.5625 -9165.1792 -7355.6911 298.1249 -333.6960 -283.2881 29440.8533 -21.0757 46.5789
ENERGY: 900000 2.4311 9.4975 4.9608 0.0000 -10487.9736 1425.8343 0.0000 0.0000 1722.3946 -7322.8553 297.9541 -9045.2499 -7348.7302 298.2383 -84.3150 -46.5086 30115.4957 9.8751 77.4795
ENERGY: 1200000 1.0202 13.2752 7.2049 0.0000 -10460.5956 1394.2745 0.0000 0.0000 1711.3822 -7333.4386 296.0491 -9044.8208 -7339.0596 298.7022 -339.5207 -297.0795 30117.3915 -10.5171 57.4468
ENERGY: 1500000 6.1084 11.4475 4.4835 0.0000 -10399.6736 1378.3782 0.0000 0.0000 1809.7717 -7189.4844 313.0693 -8999.2560 -7326.4100 300.5449 -191.9067 -87.8980 30039.7443 -11.7833 54.7403
TCL: Running FEP window   5: Lambda1 0.2    Lambda2 0.25   [dLambda 0.04999999999999999]
TCL: Setting parameter firsttimestep to 0
TCL: Setting parameter alchLambda to 0.2
Info: NONBONDED TABLE R-SQUARED SPACING: 0.0625
Info: NONBONDED TABLE SIZE: 705 POINTS
TCL: Setting parameter alchLambda2 to 0.25
Info: NONBONDED TABLE R-SQUARED SPACING: 0.0625
Info: NONBONDED TABLE SIZE: 705 POINTS
TCL: Running for 1500000 steps
ETITLE: TS BOND ANGLE DIHED IMPRP ELECT VDW BOUNDARY MISC KINETIC TOTAL TEMP POTENTIAL TOTALAVG TEMPAVG PRESSURE GPRESSURE VOLUME PRESSAVG GPRESSAVG
ENERGY: 0 6.1084 11.4475 4.4835 0.0000 -10399.6723 1378.8315 0.0000 0.0000 1808.8948 -7189.9066 312.9176 -8998.8014 -7189.9066 312.9176 -161.4521 -83.0834 30039.7443 -161.4521 -83.0834
ENERGY: 300000 1.9259 14.0403 4.7725 0.0000 -10341.9385 1276.7558 0.0000 0.0000 1755.3877 -7289.0562 303.6615 -9044.4440 -7279.4252 305.4092 -1167.9470 -1132.4307 30148.9618 -347.3069 -284.2356
ENERGY: 600000 1.4699 11.5536 5.6222 0.0000 -10447.4045 1423.6114 0.0000 0.0000 1701.0465 -7304.1009 294.2611 -9005.1474 -7298.7207 300.8518 140.7667 181.3706 29778.7740 -134.6623 -79.5611
ENERGY: 900000 0.9703 9.5482 3.3462 0.0000 -10582.9645 1508.1790 0.0000 0.0000 1747.5673 -7313.3534 302.3087 -9060.9208 -7305.6519 300.6154 984.0001 1041.7930 29477.6601 -183.1400 -121.9526
ENERGY: 1200000 2.0603 10.2708 3.8583 0.0000 -10487.2271 1395.7034 0.0000 0.0000 1781.2882 -7294.0461 308.1420 -9075.3344 -7305.1226 301.2008 -424.4706 -379.9626 30234.6348 -213.6689 -160.0766
ENERGY: 1500000 4.4421 11.2130 7.6165 0.0000 -10455.1871 1352.2999 0.0000 0.0000 1717.1975 -7362.4180 297.0550 -9079.6155 -7321.9077 299.7963 -854.3093 -750.8671 30007.5870 -271.0668 -211.2212
TCL: Running FEP window   6: Lambda1 0.25   Lambda2 0.3    [dLambda 0.04999999999999999]
TCL: Setting parameter firsttimestep to 0
TCL: Setting parameter alchLambda to 0.25
Info: NONBONDED TABLE R-SQUARED SPACING: 0.0625
Info: NONBONDED TABLE SIZE: 705 POINTS
TCL: Setting parameter alchLambda2 to 0.3
Info: NONBONDED TABLE R-SQUARED SPACING: 0.0625
Info: NONBONDED TABLE SIZE: 705 POINTS
TCL: Running for 1500000 steps
ETITLE: TS BOND ANGLE DIHED IMPRP ELECT VDW BOUNDARY MISC KINETIC TOTAL TEMP POTENTIAL TOTALAVG TEMPAVG PRESSURE GPRESSURE VOLUME PRESSAVG GPRESSAVG
ENERGY: 0 4.4421 11.2130 7.6165 0.0000 -10455.1866 1353.4191 0.0000 0.0000 1716.3050 -7362.1909 296.9006 -9078.4958 -7362.1909 296.9006 -825.2397 -739.3310 30007.5870 -825.2397 -739.3310
ENERGY: 300000 0.7431 11.9937 4.2235 0.0000 -10607.2722 1526.0678 0.0000 0.0000 1723.2718 -7340.9724 298.1058 -9064.2442 -7351.7155 297.8554 1081.4351 1133.9574 29595.9812 18.1986 69.5229
ENERGY: 600000 3.0107 5.3442 4.6340 0.0000 -10416.1802 1335.9207 0.0000 0.0000 1718.0749 -7349.1957 297.2068 -9067.2706 -7343.9140 299.5529 -553.9216 -520.8480 29491.7122 29.4110 91.1719
ENERGY: 900000 0.6422 11.7929 4.0299 0.0000 -10467.5751 1422.1334 0.0000 0.0000 1716.7590 -7312.2176 296.9792 -9028.9767 -7332.9513 299.7820 203.6538 217.2547 29963.9905 175.1444 227.6887
ENERGY: 1200000 1.9947 10.3390 2.9204 0.0000 -10535.0887 1457.2088 0.0000 0.0000 1778.6177 -7284.0082 307.6800 -9062.6259 -7324.3361 300.7380 447.2794 511.8905 29354.3359 80.6430 136.6582
ENERGY: 1500000 2.6720 8.2292 3.3227 0.0000 -10603.9027 1424.7550 0.0000 0.0000 1699.8912 -7465.0326 294.0613 -9164.9239 -7335.8649 299.7098 -13.4817 54.3299 29410.1936 38.3549 89.2086
TCL: Running FEP window   7: Lambda1 0.3    Lambda2 0.35   [dLambda 0.04999999999999999]
TCL: Setting parameter firsttimestep to 0
TCL: Setting parameter alchLambda to 0.3
Info: NONBONDED TABLE R-SQUARED SPACING: 0.0625
Info: NONBONDED TABLE SIZE: 705 POINTS
TCL: Setting parameter alchLambda2 to 0.35
Info: NONBONDED TABLE R-SQUARED SPACING: 0.0625
Info: NONBONDED TABLE SIZE: 705 POINTS
TCL: Running for 1500000 steps
ETITLE: TS BOND ANGLE DIHED IMPRP ELECT VDW BOUNDARY MISC KINETIC TOTAL TEMP POTENTIAL TOTALAVG TEMPAVG PRESSURE GPRESSURE VOLUME PRESSAVG GPRESSAVG
ENERGY: 0 2.6720 8.2292 3.3227 0.0000 -10603.9014 1426.0850 0.0000 0.0000 1699.0186 -7464.5741 293.9103 -9163.5927 -7464.5741 293.9103 -20.0648 68.8144 29410.1936 -20.0648 68.8144
ENERGY: 300000 1.8958 8.2224 3.5737 0.0000 -10682.3835 1615.0524 0.0000 0.0000 1798.1971 -7255.4421 311.0670 -9053.6392 -7315.0012 304.3022 2022.9124 2081.5739 29201.3535 502.4210 559.9936
ENERGY: 600000 2.8127 9.2685 3.2165 0.0000 -10422.2869 1362.7176 0.0000 0.0000 1742.6520 -7301.6195 301.4584 -9044.2715 -7328.5168 300.8170 -292.2574 -238.4770 29728.1514 308.9105 365.6387
ENERGY: 900000 2.8692 4.4892 5.9008 0.0000 -10436.4629 1431.5563 0.0000 0.0000 1684.3104 -7307.3370 291.3660 -8991.6474 -7338.1430 299.5193 661.5811 650.6631 29415.4261 302.1786 349.6533
ENERGY: 1200000 3.0490 10.1912 4.0786 0.0000 -10365.2430 1338.0563 0.0000 0.0000 1759.5675 -7250.3004 304.3845 -9009.8679 -7328.7385 300.1926 -725.0381 -690.1870 30096.3277 135.7960 184.4351
ENERGY: 1500000 5.7005 12.1461 4.2699 0.0000 -10427.7756 1325.6453 0.0000 0.0000 1779.8199 -7300.1940 307.8880 -9080.0138 -7318.6089 300.9273 -674.9186 -605.7209 29789.4571 8.4456 64.6416
TCL: Running FEP window   8: Lambda1 0.35   Lambda2 0.39999999999999997 [dLambda 0.04999999999999999]
TCL: Setting parameter firsttimestep to 0
TCL: Setting parameter alchLambda to 0.35
Info: NONBONDED TABLE R-SQUARED SPACING: 0.0625
Info: NONBONDED TABLE SIZE: 705 POINTS
TCL: Setting parameter alchLambda2 to 0.39999999999999997
Info: NONBONDED TABLE R-SQUARED SPACING: 0.0625
Info: NONBONDED TABLE SIZE: 705 POINTS
TCL: Running for 1500000 steps
ETITLE: TS BOND ANGLE DIHED IMPRP ELECT VDW BOUNDARY MISC KINETIC TOTAL TEMP POTENTIAL TOTALAVG TEMPAVG PRESSURE GPRESSURE VOLUME PRESSAVG GPRESSAVG
ENERGY: 0 5.7005 12.1461 4.2699 0.0000 -10427.7743 1326.1832 0.0000 0.0000 1778.9775 -7300.4971 307.7423 -9079.4747 -7300.4971 307.7423 -678.3313 -596.5748 29789.4571 -678.3313 -596.5748
ENERGY: 300000 2.0434 8.2041 4.3209 0.0000 -10551.1789 1461.9543 0.0000 0.0000 1763.3903 -7311.2660 305.0458 -9074.6562 -7309.8680 305.2288 153.3873 210.6121 30102.4426 -285.7941 -210.7532
ENERGY: 600000 2.0372 7.7203 4.5866 0.0000 -10415.9436 1339.0050 0.0000 0.0000 1699.4903 -7363.1041 293.9919 -9062.5944 -7321.7279 302.4376 -718.0883 -639.7853 30341.4359 -134.2686 -63.9866
ENERGY: 900000 2.0038 8.5353 3.8038 0.0000 -10541.0514 1463.0050 0.0000 0.0000 1778.8325 -7284.8709 307.7172 -9063.7034 -7321.7673 302.5481 161.2535 249.7021 29976.2745 -236.1044 -163.6271
ENERGY: 1200000 2.3765 8.6323 7.0581 0.0000 -10638.4320 1504.1605 0.0000 0.0000 1775.9224 -7340.2823 307.2137 -9116.2047 -7319.8818 303.2218 695.7398 741.8677 29474.3113 -159.1579 -94.8879
ENERGY: 1500000 1.3099 11.3664 4.8170 0.0000 -10389.0782 1377.6107 0.0000 0.0000 1640.4039 -7353.5703 283.7706 -8993.9742 -7322.6104 301.6482 -336.4411 -256.6429 30125.1862 -213.8078 -147.4899
TCL: Running FEP window   9: Lambda1 0.39999999999999997 Lambda2 0.44999999999999996 [dLambda 0.04999999999999999]
TCL: Setting parameter firsttimestep to 0
TCL: Setting parameter alchLambda to 0.39999999999999997
Info: NONBONDED TABLE R-SQUARED SPACING: 0.0625
Info: NONBONDED TABLE SIZE: 705 POINTS
TCL: Setting parameter alchLambda2 to 0.44999999999999996
Info: NONBONDED TABLE R-SQUARED SPACING: 0.0625
Info: NONBONDED TABLE SIZE: 705 POINTS
TCL: Running for 1500000 steps
ETITLE: TS BOND ANGLE DIHED IMPRP ELECT VDW BOUNDARY MISC KINETIC TOTAL TEMP POTENTIAL TOTALAVG TEMPAVG PRESSURE GPRESSURE VOLUME PRESSAVG GPRESSAVG
ENERGY: 0 1.3099 11.3664 4.8170 0.0000 -10389.0776 1377.8674 0.0000 0.0000 1639.5758 -7354.1410 283.6274 -8993.7168 -7354.1410 283.6274 -329.7456 -246.1962 30125.1862 -329.7456 -246.1962
ENERGY: 300000 2.1405 7.2129 4.2941 0.0000 -10296.7375 1305.3621 0.0000 0.0000 1778.2985 -7199.4296 307.6248 -8977.7281 -7283.0381 300.9112 -530.7804 -472.7345 29903.8809 -451.3694 -370.7597
ENERGY: 600000 2.2039 11.6951 3.5521 0.0000 -10269.1783 1306.8376 0.0000 0.0000 1738.2549 -7206.6347 300.6977 -8944.8896 -7282.7856 301.7019 -771.8462 -719.2723 30408.1647 -293.7995 -222.6685
ENERGY: 900000 2.6536 10.9450 5.2113 0.0000 -10547.3806 1408.6986 0.0000 0.0000 1723.5480 -7396.3241 298.1536 -9119.8721 -7300.5833 300.1810 -260.4199 -203.8292 29651.1246 -165.3335 -89.7509
ENERGY: 1200000 4.3242 10.8909 5.9975 0.0000 -10546.7928 1440.8057 0.0000 0.0000 1760.2544 -7324.5201 304.5034 -9084.7744 -7306.8031 300.2936 266.4871 368.7871 29622.8494 -92.6682 -13.1879
ENERGY: 1500000 0.7360 8.1436 7.2858 0.0000 -10655.8811 1497.7388 0.0000 0.0000 1743.1313 -7398.8456 301.5413 -9141.9769 -7314.1810 300.1953 321.3066 399.6427 29948.1327 -96.1700 -11.3217
TCL: Running FEP window  10: Lambda1 0.44999999999999996 Lambda2 0.49999999999999994 [dLambda 0.04999999999999999]
TCL: Setting parameter firsttimestep to 0
TCL: Setting parameter alchLambda to 0.44999999999999996
Info: NONBONDED TABLE R-SQUARED SPACING: 0.0625
Info: NONBONDED TABLE SIZE: 705 POINTS
TCL: Setting parameter alchLambda2 to 0.49999999999999994
Info: NONBONDED TABLE R-SQUARED SPACING: 0.0625
Info: NONBONDED TABLE SIZE: 705 POINTS
TCL: Running for 1500000 steps
ETITLE: TS BOND ANGLE DIHED IMPRP ELECT VDW BOUNDARY MISC KINETIC TOTAL TEMP POTENTIAL TOTALAVG TEMPAVG PRESSURE GPRESSURE VOLUME PRESSAVG GPRESSAVG
ENERGY: 0 0.7360 8.1436 7.2858 0.0000 -10655.8816 1498.2670 0.0000 0.0000 1742.2445 -7399.2047 301.3879 -9141.4492 -7399.2047 301.3879 331.1122 410.6212 29948.1327 331.1122 410.6212
ENERGY: 300000 3.7519 13.1867 2.6437 0.0000 -10584.7339 1457.3104 0.0000 0.0000 1701.1660 -7406.6752 294.2818 -9107.8412 -7398.4236 295.7241 165.0191 258.4915 29617.3418 125.1423 182.2904
ENERGY: 600000 1.7724 10.5567 4.3520 0.0000 -10601.3750 1570.1355 0.0000 0.0000 1746.3173 -7268.2410 302.0924 -9014.5583 -7351.0294 299.6289 1314.2923 1339.4355 29804.4287 160.9039 225.9097
ENERGY: 900000 2.8748 7.8894 5.2877 0.0000 -10480.5723 1395.8331 0.0000 0.0000 1756.7321 -7311.9553 303.8940 -9068.6874 -7338.2608 299.5992 200.5448 196.0758 29428.7159 88.9114 145.6161
ENERGY: 1200000 3.2362 9.8872 3.8187 0.0000 -10608.3261 1455.7505 0.0000 0.0000 1702.4539 -7433.1796 294.5046 -9135.6335 -7337.3942 299.3435 217.4496 184.4717 29738.5842 36.7079 89.4097
ENERGY: 1500000 1.7424 9.7357 5.4939 0.0000 -10473.5403 1408.8060 0.0000 0.0000 1765.6595 -7282.1028 305.4384 -9047.7623 -7332.6444 299.5797 -107.4770 -9.4609 30102.2937 -26.3928 33.7351
TCL: Running FEP window  11: Lambda1 0.49999999999999994 Lambda2 0.5499999999999999 [dLambda 0.04999999999999999]
TCL: Setting parameter firsttimestep to 0
TCL: Setting parameter alchLambda to 0.49999999999999994
Info: NONBONDED TABLE R-SQUARED SPACING: 0.0625
Info: NONBONDED TABLE SIZE: 705 POINTS
TCL: Setting parameter alchLambda2 to 0.5499999999999999
Info: NONBONDED TABLE R-SQUARED SPACING: 0.0625
Info: NONBONDED TABLE SIZE: 705 POINTS
TCL: Running for 1500000 steps
ETITLE: TS BOND ANGLE DIHED IMPRP ELECT VDW BOUNDARY MISC KINETIC TOTAL TEMP POTENTIAL TOTALAVG TEMPAVG PRESSURE GPRESSURE VOLUME PRESSAVG GPRESSAVG
ENERGY: 0 1.7424 9.7357 5.4939 0.0000 -10473.5403 1409.7836 0.0000 0.0000 1764.7869 -7281.9978 305.2874 -9046.7847 -7281.9978 305.2874 -76.6920 7.7001 30102.2937 -76.6920 7.7001
ENERGY: 300000 3.0785 9.3799 3.9640 0.0000 -10489.0151 1418.6329 0.0000 0.0000 1781.8227 -7272.1370 308.2344 -9053.9597 -7289.6718 302.4677 128.1466 274.8255 29763.0375 -70.3910 27.6343
ENERGY: 600000 2.5559 9.1445 6.0899 0.0000 -10472.2890 1372.9155 0.0000 0.0000 1727.6358 -7353.9475 298.8607 -9081.5833 -7289.5073 303.6709 -215.6741 -167.5530 29535.9514 4.6853 94.0534
ENERGY: 900000 1.2211 9.1835 3.5678 0.0000 -10470.8581 1379.7302 0.0000 0.0000 1700.7982 -7376.3573 294.2182 -9077.1555 -7292.8282 303.0538 -177.5977 -134.2127 29530.0168 -19.2004 54.3806
ENERGY: 1200000 3.2618 7.8154 4.9798 0.0000 -10490.5539 1448.3956 0.0000 0.0000 1776.9685 -7249.1329 307.3947 -9026.1014 -7302.8908 303.0822 188.9094 314.6331 30029.7752 -77.9118 1.1962
ENERGY: 1500000 1.6593 8.8819 4.7883 0.0000 -10595.9026 1475.3898 0.0000 0.0000 1694.9752 -7410.2080 293.2108 -9105.1833 -7304.9229 303.0150 484.7568 555.7475 29532.6203 -33.2573 40.7009
TCL: Running FEP window  12: Lambda1 0.5499999999999999 Lambda2 0.6    [dLambda 0.050000000000000044]
TCL: Setting parameter firsttimestep to 0
TCL: Setting parameter alchLambda to 0.5499999999999999
Info: NONBONDED TABLE R-SQUARED SPACING: 0.0625
Info: NONBONDED TABLE SIZE: 705 POINTS
TCL: Setting parameter alchLambda2 to 0.6
Info: NONBONDED TABLE R-SQUARED SPACING: 0.0625
Info: NONBONDED TABLE SIZE: 705 POINTS
TCL: Running for 1500000 steps
ETITLE: TS BOND ANGLE DIHED IMPRP ELECT VDW BOUNDARY MISC KINETIC TOTAL TEMP POTENTIAL TOTALAVG TEMPAVG PRESSURE GPRESSURE VOLUME PRESSAVG GPRESSAVG
ENERGY: 0 1.6593 8.8819 4.7883 0.0000 -10596.2970 1476.5881 0.0000 0.0000 1694.1103 -7410.2691 293.0612 -9104.3793 -7410.2691 293.0612 494.5798 577.6715 29532.6203 494.5798 577.6715
ENERGY: 300000 1.7539 7.5425 3.6620 0.0000 -10521.0915 1364.8443 0.0000 0.0000 1745.1265 -7398.1622 301.8864 -9143.2888 -7354.4534 302.3832 -476.5140 -428.5119 29764.6246 352.4264 410.0915
ENERGY: 600000 0.8826 8.7786 4.1217 0.0000 -10374.4250 1272.4417 0.0000 0.0000 1773.5799 -7314.6204 306.8085 -9088.2003 -7345.4596 301.4213 -1235.5234 -1187.5709 30194.4895 -71.7683 -5.2875
ENERGY: 900000 2.2359 9.5535 3.3964 0.0000 -10545.2276 1406.7562 0.0000 0.0000 1678.7056 -7444.5801 290.3964 -9123.2857 -7355.2521 299.2652 -162.9361 -63.5606 29617.3899 -162.3608 -89.0755
ENERGY: 1200000 1.5009 11.9838 3.6491 0.0000 -10628.4165 1494.9370 0.0000 0.0000 1793.9249 -7322.4207 310.3280 -9116.3456 -7346.6979 300.1831 858.7928 979.5820 29265.5492 -21.7550 45.1582
ENERGY: 1500000 2.9403 7.6489 5.6578 0.0000 -10577.8323 1514.2642 0.0000 0.0000 1695.2859 -7352.0352 293.2646 -9047.3211 -7340.8429 300.1377 787.7080 797.9946 29851.1998 12.9927 71.6243
TCL: Running FEP window  13: Lambda1 0.6    Lambda2 0.65   [dLambda 0.050000000000000044]
TCL: Setting parameter firsttimestep to 0
TCL: Setting parameter alchLambda to 0.6
Info: NONBONDED TABLE R-SQUARED SPACING: 0.0625
Info: NONBONDED TABLE SIZE: 705 POINTS
TCL: Setting parameter alchLambda2 to 0.65
Info: NONBONDED TABLE R-SQUARED SPACING: 0.0625
Info: NONBONDED TABLE SIZE: 705 POINTS
TCL: Running for 1500000 steps
ETITLE: TS BOND ANGLE DIHED IMPRP ELECT VDW BOUNDARY MISC KINETIC TOTAL TEMP POTENTIAL TOTALAVG TEMPAVG PRESSURE GPRESSURE VOLUME PRESSAVG GPRESSAVG
ENERGY: 0 2.9403 7.6489 5.6578 0.0000 -10578.0108 1514.3612 0.0000 0.0000 1694.4438 -7352.9588 293.1189 -9047.4027 -7352.9588 293.1189 729.7886 810.7291 29851.1998 729.7886 810.7291
ENERGY: 300000 1.2694 11.9598 4.4629 0.0000 -10381.9835 1337.6454 0.0000 0.0000 1732.5629 -7294.0832 299.7131 -9026.6460 -7333.5811 297.2236 -435.7151 -402.7664 29704.3668 45.8115 92.7951
ENERGY: 600000 2.7293 9.8428 3.5191 0.0000 -10553.5656 1369.6016 0.0000 0.0000 1758.4549 -7409.4179 304.1921 -9167.8728 -7342.2595 299.0152 -608.2875 -536.3811 29689.7209 -78.6101 -7.7114
ENERGY: 900000 3.8309 8.6271 3.2446 0.0000 -10574.3004 1422.3227 0.0000 0.0000 1789.5428 -7346.7323 309.5699 -9136.2751 -7335.3601 300.6080 35.4528 20.2516 29696.5792 -113.9592 -58.0233
ENERGY: 1200000 4.8913 8.0653 4.0142 0.0000 -10631.5300 1481.2173 0.0000 0.0000 1732.9666 -7400.3752 299.7829 -9133.3418 -7333.3905 300.6314 506.8826 513.7958 29415.9824 -115.5138 -55.6119
ENERGY: 1500000 0.6932 14.3387 3.7197 0.0000 -10458.7760 1356.1691 0.0000 0.0000 1673.9596 -7409.8956 289.5754 -9083.8552 -7342.3464 299.5516 -314.3943 -268.4639 29578.9182 -127.9735 -68.5993
TCL: Running FEP window  14: Lambda1 0.65   Lambda2 0.7000000000000001 [dLambda 0.050000000000000044]
TCL: Setting parameter firsttimestep to 0
TCL: Setting parameter alchLambda to 0.65
Info: NONBONDED TABLE R-SQUARED SPACING: 0.0625
Info: NONBONDED TABLE SIZE: 705 POINTS
TCL: Setting parameter alchLambda2 to 0.7000000000000001
Info: NONBONDED TABLE R-SQUARED SPACING: 0.0625
Info: NONBONDED TABLE SIZE: 705 POINTS
TCL: Running for 1500000 steps
ETITLE: TS BOND ANGLE DIHED IMPRP ELECT VDW BOUNDARY MISC KINETIC TOTAL TEMP POTENTIAL TOTALAVG TEMPAVG PRESSURE GPRESSURE VOLUME PRESSAVG GPRESSAVG
ENERGY: 0 0.6932 14.3387 3.7197 0.0000 -10459.1092 1355.8200 0.0000 0.0000 1673.1071 -7411.4305 289.4279 -9084.5376 -7411.4305 289.4279 -349.8472 -262.4279 29578.9182 -349.8472 -262.4279
ENERGY: 300000 1.1800 8.4092 5.7609 0.0000 -10434.1202 1350.2345 0.0000 0.0000 1732.9537 -7335.5819 299.7807 -9068.5356 -7315.4639 298.7270 -542.8973 -534.1134 30074.3054 -223.4096 -152.6943
ENERGY: 600000 2.2241 10.5787 6.8843 0.0000 -10414.2090 1318.1692 0.0000 0.0000 1714.8736 -7361.4792 296.6530 -9076.3527 -7337.9155 299.0911 -834.4255 -784.9521 30025.6384 -431.5755 -365.5861
ENERGY: 900000 3.4014 12.6289 2.8990 0.0000 -10535.0939 1452.1153 0.0000 0.0000 1734.5564 -7329.4929 300.0579 -9064.0493 -7322.6769 299.5782 228.3913 300.3380 30142.2196 -206.7852 -136.9528
ENERGY: 1200000 1.6407 7.0014 5.4665 0.0000 -10557.2565 1433.6449 0.0000 0.0000 1722.3497 -7387.1534 297.9463 -9109.5031 -7338.0002 299.9947 21.4409 103.6414 29661.1701 -147.8354 -76.4438
ENERGY: 1500000 0.4028 11.1424 6.1409 0.0000 -10519.5020 1378.8926 0.0000 0.0000 1778.4561 -7344.4672 307.6520 -9122.9233 -7337.9530 301.0099 -585.3406 -497.6390 30166.3994 -180.4011 -110.6422
TCL: Running FEP window  15: Lambda1 0.7000000000000001 Lambda2 0.7500000000000001 [dLambda 0.050000000000000044]
TCL: Setting parameter firsttimestep to 0
TCL: Setting parameter alchLambda to 0.7000000000000001
Info: NONBONDED TABLE R-SQUARED SPACING: 0.0625
Info: NONBONDED TABLE SIZE: 705 POINTS
TCL: Setting parameter alchLambda2 to 0.7500000000000001
Info: NONBONDED TABLE R-SQUARED SPACING: 0.0625
Info: NONBONDED TABLE SIZE: 705 POINTS
TCL: Running for 1500000 steps
ETITLE: TS BOND ANGLE DIHED IMPRP ELECT VDW BOUNDARY MISC KINETIC TOTAL TEMP POTENTIAL TOTALAVG TEMPAVG PRESSURE GPRESSURE VOLUME PRESSAVG GPRESSAVG
ENERGY: 0 0.4028 11.1424 6.1409 0.0000 -10520.7304 1379.0635 0.0000 0.0000 1777.5829 -7346.3979 307.5010 -9123.9808 -7346.3979 307.5010 -583.8062 -489.2858 30166.3994 -583.8062 -489.2858
ENERGY: 300000 4.7673 10.3726 4.5601 0.0000 -10377.0165 1331.8486 0.0000 0.0000 1706.8638 -7318.6042 295.2674 -9025.4680 -7344.8309 297.7106 -647.2748 -546.9988 30388.2275 -322.7940 -260.2181
ENERGY: 600000 1.4358 9.7431 3.4302 0.0000 -10614.6540 1450.7410 0.0000 0.0000 1722.5267 -7426.7771 297.9769 -9149.3038 -7353.9356 298.2865 139.8921 258.0533 29719.5311 -257.8306 -187.5766
ENERGY: 900000 1.1996 11.0270 4.4820 0.0000 -10487.5982 1352.7041 0.0000 0.0000 1771.6874 -7346.4981 306.4812 -9118.1855 -7336.3145 300.2224 -529.0381 -439.6663 29804.9324 -247.4612 -183.6653
ENERGY: 1200000 3.2844 9.7831 4.2791 0.0000 -10576.3129 1438.9139 0.0000 0.0000 1730.5301 -7389.5222 299.3614 -9120.0523 -7334.2891 300.5425 179.0747 264.8123 29651.5489 -264.9971 -196.8128
ENERGY: 1500000 0.8110 9.0520 4.8078 0.0000 -10507.9758 1418.3836 0.0000 0.0000 1763.9892 -7310.9322 305.1494 -9074.9214 -7330.8407 301.2676 -31.9759 24.2883 30274.3467 -192.6690 -127.3200
TCL: Running FEP window  16: Lambda1 0.7500000000000001 Lambda2 0.8000000000000002 [dLambda 0.050000000000000044]
TCL: Setting parameter firsttimestep to 0
TCL: Setting parameter alchLambda to 0.7500000000000001
Info: NONBONDED TABLE R-SQUARED SPACING: 0.0625
Info: NONBONDED TABLE SIZE: 705 POINTS
TCL: Setting parameter alchLambda2 to 0.8000000000000002
Info: NONBONDED TABLE R-SQUARED SPACING: 0.0625
Info: NONBONDED TABLE SIZE: 705 POINTS
TCL: Running for 1500000 steps
ETITLE: TS BOND ANGLE DIHED IMPRP ELECT VDW BOUNDARY MISC KINETIC TOTAL TEMP POTENTIAL TOTALAVG TEMPAVG PRESSURE GPRESSURE VOLUME PRESSAVG GPRESSAVG
ENERGY: 0 0.8110 9.0520 4.8078 0.0000 -10508.0450 1418.3540 0.0000 0.0000 1763.1636 -7311.8567 305.0066 -9075.0203 -7311.8567 305.0066 -44.0289 33.3167 30274.3467 -44.0289 33.3167
ENERGY: 300000 3.2170 4.4788 6.8336 0.0000 -10363.8748 1268.6687 0.0000 0.0000 1772.7248 -7307.9519 306.6606 -9080.6767 -7344.8483 298.6440 -1158.0439 -1170.8870 30050.8039 -186.7516 -145.8156
ENERGY: 600000 1.7586 10.5919 4.4394 0.0000 -10365.2858 1363.3002 0.0000 0.0000 1726.8602 -7258.3355 298.7266 -8985.1956 -7319.8700 298.0927 -111.6937 -61.4986 30221.2742 -104.4819 -49.5285
ENERGY: 900000 2.0880 10.9489 5.6117 0.0000 -10552.6076 1396.5330 0.0000 0.0000 1736.6262 -7400.7998 300.4160 -9137.4260 -7338.5939 298.4597 -214.7182 -168.3280 29767.1530 -120.1198 -63.9672
ENERGY: 1200000 3.1004 8.4675 4.4557 0.0000 -10428.3819 1437.1129 0.0000 0.0000 1663.7448 -7311.5007 287.8083 -8975.2454 -7332.0198 297.8559 768.7512 840.5103 29383.6002 95.5678 155.2337
ENERGY: 1500000 1.3525 8.5644 5.3091 0.0000 -10648.2896 1478.2585 0.0000 0.0000 1735.8059 -7418.9992 300.2741 -9154.8051 -7337.2483 298.5022 427.8465 409.3280 29795.3506 141.7839 189.4774
TCL: Running FEP window  17: Lambda1 0.8000000000000002 Lambda2 0.8500000000000002 [dLambda 0.050000000000000044]
TCL: Setting parameter firsttimestep to 0
TCL: Setting parameter alchLambda to 0.8000000000000002
Info: NONBONDED TABLE R-SQUARED SPACING: 0.0625
Info: NONBONDED TABLE SIZE: 705 POINTS
TCL: Setting parameter alchLambda2 to 0.8500000000000002
Info: NONBONDED TABLE R-SQUARED SPACING: 0.0625
Info: NONBONDED TABLE SIZE: 705 POINTS
TCL: Running for 1500000 steps
ETITLE: TS BOND ANGLE DIHED IMPRP ELECT VDW BOUNDARY MISC KINETIC TOTAL TEMP POTENTIAL TOTALAVG TEMPAVG PRESSURE GPRESSURE VOLUME PRESSAVG GPRESSAVG
ENERGY: 0 1.3525 8.5644 5.3091 0.0000 -10649.8996 1479.8256 0.0000 0.0000 1734.9554 -7419.8926 300.1269 -9154.8480 -7419.8926 300.1269 351.9924 433.0313 29795.3506 351.9924 433.0313
ENERGY: 300000 2.6402 8.8315 2.8334 0.0000 -10598.8210 1457.9013 0.0000 0.0000 1724.4501 -7402.1645 298.3096 -9126.6146 -7373.2193 303.6203 253.9334 299.9575 29700.2216 141.0349 214.7155
ENERGY: 600000 3.2795 7.9930 6.4308 0.0000 -10390.8180 1318.6666 0.0000 0.0000 1712.1413 -7342.3069 296.1804 -9054.4482 -7366.9640 302.8454 -595.6043 -550.8656 29716.7262 114.3669 178.9971
ENERGY: 900000 5.7524 6.9687 5.1643 0.0000 -10517.3896 1444.3055 0.0000 0.0000 1724.8430 -7330.3558 298.3776 -9055.1987 -7359.6510 300.6180 393.7315 444.2417 30113.3498 18.9599 86.6881
ENERGY: 1200000 2.2020 9.5244 4.6708 0.0000 -10380.8782 1334.2031 0.0000 0.0000 1760.4403 -7269.8376 304.5355 -9030.2780 -7356.6908 300.1511 -473.0482 -402.1956 29926.2827 18.1930 86.0635
ENERGY: 1500000 2.3133 11.7940 3.8721 0.0000 -10567.9953 1457.1457 0.0000 0.0000 1723.1407 -7369.7294 298.0831 -9092.8702 -7362.5579 299.4935 235.7002 330.5570 30115.5084 18.4266 86.6795
TCL: Running FEP window  18: Lambda1 0.8500000000000002 Lambda2 0.9000000000000002 [dLambda 0.050000000000000044]
TCL: Setting parameter firsttimestep to 0
TCL: Setting parameter alchLambda to 0.8500000000000002
Info: NONBONDED TABLE R-SQUARED SPACING: 0.0625
Info: NONBONDED TABLE SIZE: 705 POINTS
TCL: Setting parameter alchLambda2 to 0.9000000000000002
Info: NONBONDED TABLE R-SQUARED SPACING: 0.0625
Info: NONBONDED TABLE SIZE: 705 POINTS
TCL: Running for 1500000 steps
ETITLE: TS BOND ANGLE DIHED IMPRP ELECT VDW BOUNDARY MISC KINETIC TOTAL TEMP POTENTIAL TOTALAVG TEMPAVG PRESSURE GPRESSURE VOLUME PRESSAVG GPRESSAVG
ENERGY: 0 2.3133 11.7940 3.8721 0.0000 -10568.3392 1457.1248 0.0000 0.0000 1722.2636 -7370.9714 297.9314 -9093.2350 -7370.9714 297.9314 246.8836 340.9105 30115.5084 246.8836 340.9105
ENERGY: 300000 1.5290 11.0851 5.2581 0.0000 -10605.4480 1501.4229 0.0000 0.0000 1696.9970 -7389.1558 293.5606 -9086.1528 -7361.4765 298.8885 597.9781 598.2880 29770.5761 274.0254 345.2531
ENERGY: 600000 2.6403 12.4575 3.5729 0.0000 -10488.7485 1445.4731 0.0000 0.0000 1810.1767 -7214.4280 313.1393 -9024.6047 -7341.4511 300.7829 289.1582 317.8534 30091.1070 116.3982 186.7589
ENERGY: 900000 0.5178 10.0493 3.9442 0.0000 -10562.6599 1453.1765 0.0000 0.0000 1747.4471 -7347.5250 302.2879 -9094.9720 -7342.8744 300.7211 409.0550 421.8474 29841.5790 148.8581 209.6184
ENERGY: 1200000 0.6671 11.4618 5.1087 0.0000 -10574.7434 1482.6050 0.0000 0.0000 1677.9576 -7396.9432 290.2670 -9074.9008 -7353.9264 299.7658 567.3125 661.6697 29610.2286 134.1896 193.8018
ENERGY: 1500000 2.9005 8.1277 3.3690 0.0000 -10562.0535 1465.3406 0.0000 0.0000 1721.4053 -7360.9104 297.7829 -9082.3157 -7350.3822 300.4162 368.9227 492.8791 29800.1754 105.3993 166.8862
TCL: Running FEP window  19: Lambda1 0.9000000000000002 Lambda2 0.9500000000000003 [dLambda 0.050000000000000044]
TCL: Setting parameter firsttimestep to 0
TCL: Setting parameter alchLambda to 0.9000000000000002
Info: NONBONDED TABLE R-SQUARED SPACING: 0.0625
Info: NONBONDED TABLE SIZE: 705 POINTS
TCL: Setting parameter alchLambda2 to 0.9500000000000003
Info: NONBONDED TABLE R-SQUARED SPACING: 0.0625
Info: NONBONDED TABLE SIZE: 705 POINTS
TCL: Running for 1500000 steps
ETITLE: TS BOND ANGLE DIHED IMPRP ELECT VDW BOUNDARY MISC KINETIC TOTAL TEMP POTENTIAL TOTALAVG TEMPAVG PRESSURE GPRESSURE VOLUME PRESSAVG GPRESSAVG
ENERGY: 0 2.9005 8.1277 3.3690 0.0000 -10563.2369 1465.4344 0.0000 0.0000 1720.5296 -7362.8756 297.6314 -9083.4052 -7362.8756 297.6314 409.5858 504.1292 29800.1754 409.5858 504.1292
ENERGY: 300000 3.5515 7.9424 4.0269 0.0000 -10338.3851 1291.9874 0.0000 0.0000 1764.1197 -7266.7573 305.1720 -9030.8770 -7306.1209 302.6629 -704.8942 -624.6911 30152.4974 76.9259 169.9731
ENERGY: 600000 3.0058 7.8805 3.9646 0.0000 -10379.0734 1368.0055 0.0000 0.0000 1677.7928 -7318.4242 290.2385 -8996.2170 -7346.1185 299.5667 -312.9584 -220.1752 30281.6945 -239.3099 -141.0700
ENERGY: 900000 3.6744 9.2352 3.4400 0.0000 -10485.0488 1358.6562 0.0000 0.0000 1749.6022 -7360.4408 302.6607 -9110.0430 -7341.1788 300.7884 -552.3807 -532.8160 29743.2569 -271.7227 -184.7120
ENERGY: 1200000 4.5048 10.7574 5.7452 0.0000 -10461.6663 1368.3479 0.0000 0.0000 1695.5503 -7376.7607 293.3103 -9072.3110 -7332.6833 301.2437 -530.8929 -514.6832 29894.7139 -225.9545 -147.8716
ENERGY: 1500000 1.7507 7.2328 3.3279 0.0000 -10445.6272 1321.4719 0.0000 0.0000 1703.4391 -7408.4048 294.6750 -9111.8440 -7343.9521 299.9978 -920.8149 -838.3469 30090.8176 -235.6002 -160.7933
TCL: Running FEP window  20: Lambda1 0.9500000000000003 Lambda2 1.0    [dLambda 0.04999999999999971]
TCL: Setting parameter firsttimestep to 0
TCL: Setting parameter alchLambda to 0.9500000000000003
Info: NONBONDED TABLE R-SQUARED SPACING: 0.0625
Info: NONBONDED TABLE SIZE: 705 POINTS
TCL: Setting parameter alchLambda2 to 1.0
Info: NONBONDED TABLE R-SQUARED SPACING: 0.0625
Info: NONBONDED TABLE SIZE: 705 POINTS
TCL: Running for 1500000 steps
ETITLE: TS BOND ANGLE DIHED IMPRP ELECT VDW BOUNDARY MISC KINETIC TOTAL TEMP POTENTIAL TOTALAVG TEMPAVG PRESSURE GPRESSURE VOLUME PRESSAVG GPRESSAVG
ENERGY: 0 1.7507 7.2328 3.3279 0.0000 -10447.0591 1323.8455 0.0000 0.0000 1702.5697 -7408.3326 294.5246 -9110.9022 -7408.3326 294.5246 -883.2266 -797.1409 30090.8176 -883.2266 -797.1409
ENERGY: 300000 3.9917 10.3417 3.8818 0.0000 -10626.0385 1515.3387 0.0000 0.0000 1791.3320 -7301.1525 309.8794 -9092.4845 -7348.4614 299.5611 809.3492 866.2577 30120.9911 211.5679 284.3549
ENERGY: 600000 3.0570 10.0770 3.1481 0.0000 -10368.3172 1357.7830 0.0000 0.0000 1782.6041 -7211.6480 308.3696 -8994.2521 -7354.7405 300.6794 -226.9456 -212.7960 30416.6668 191.3916 243.7027
ENERGY: 900000 4.1057 8.9033 2.6412 0.0000 -10565.2446 1432.7680 0.0000 0.0000 1703.6645 -7413.1619 294.7140 -9116.8264 -7371.5203 299.3850 -80.9352 -0.8201 30255.6264 75.2655 136.6657
ENERGY: 1200000 2.3865 13.2300 6.2343 0.0000 -10540.1432 1445.1087 0.0000 0.0000 1711.7179 -7361.4658 296.1071 -9073.1837 -7365.2437 299.2260 249.6416 326.4986 29890.8624 -29.1342 37.1610
ENERGY: 1500000 1.6980 13.2650 3.7789 0.0000 -10415.8837 1385.2812 0.0000 0.0000 1759.2080 -7252.6526 304.3224 -9011.8606 -7351.3768 300.3146 -73.2701 -65.2386 30233.0606 -61.8525 0.5508
TCL: Exiting due to exit command.
