Info: SIMULATION PARAMETERS:
Info: TIMESTEP               2
Info: NUMBER OF STEPS        0
Info: STEPS PER CYCLE        10
Info: PERIODIC CELL BASIS 1  32.1493 0 0
Info: PERIODIC CELL BASIS 2  0 29.344 0
Info: PERIODIC CELL BASIS 3  0 0 31.804
Info: PERIODIC CELL CENTER   0 0 0
Info: WRAPPING WATERS AROUND PERIODIC BOUNDARIES ON OUTPUT.
Info: WRAPPING ALL CLUSTERS AROUND PERIODIC BOUNDARIES ON OUTPUT.
Info: FIRST LDB TIMESTEP     50
Info: LAST LDB TIMESTEP     -1
Info: HOM BACKGROUND SCALING 1
Info: PME BACKGROUND SCALING 1
Info: MIN ATOMS PER PATCH    40
Info: EMPTY PATCH LOAD       40 ATOMS
Info: VELOCITY FILE          mobley_9897248_equil.vel
Info: CENTER OF MASS MOVING INITIALLY? NO
Info: DIELECTRIC             1
Info: EXCLUDE                SCALED ONE-FOUR
Info: 1-4 ELECTROSTATICS SCALED BY 0.833333
Info: MODIFIED 1-4 VDW PARAMETERS WILL BE USED
Info: DCD FILENAME           mobley_9897248_prod.dcd
Info: DCD FREQUENCY          100000
Info: DCD FIRST STEP         100000
Info: DCD FILE WILL CONTAIN UNIT CELL DATA
Info: XST FILENAME           mobley_9897248_prod.xst
Info: XST FREQUENCY          100000
Info: NO VELOCITY DCD OUTPUT
Info: NO FORCE DCD OUTPUT
Info: OUTPUT FILENAME        mobley_9897248_prod
Info: BINARY OUTPUT FILES WILL BE USED
Info: RESTART FILENAME       mobley_9897248_prod.restart
Info: RESTART FREQUENCY      100000
Info: BINARY RESTART FILES WILL BE USED
Info: CUTOFF                 9
Info: PAIRLIST DISTANCE      11
Info: PAIRLIST SHRINK RATE   0.01
Info: PAIRLIST GROW RATE     0.01
Info: PAIRLIST TRIGGER       0.3
Info: PAIRLISTS PER CYCLE    2
Info: PAIRLISTS ENABLED
Info: MARGIN                 2
Info: HYDROGEN GROUP CUTOFF  2.5
Info: PATCH DIMENSION        15.5
Info: ENERGY OUTPUT STEPS    100000
Info: ENERGY EVALUATION STEPS    100000
Info: OUTPUT ENERGY PRECISION 4
Info: CROSSTERM ENERGY INCLUDED IN DIHEDRAL
Info: TIMING OUTPUT STEPS    1000000
Info: PRESSURE OUTPUT STEPS  100000
Info: ALCHEMICAL FEP ON
Info: FEP CURRENT LAMBDA VALUE     0
Info: FEP COMPARISON LAMBDA VALUE  0.05
Info: FEP INTRA-ALCHEMICAL NON-BONDED INTERACTIONS WILL BE RETAINED
Info: FEP INTRA-ALCHEMICAL BONDED INTERACTIONS WILL BE RETAINED
Info: FEP VDW SHIFTING COEFFICIENT 5
Info: FEP ELEC. ACTIVE FOR ANNIHILATED PARTICLES BETWEEN LAMBDA = 0 AND LAMBDA = 0.5
Info: FEP ELEC. ACTIVE FOR EXNIHILATED PARTICLES BETWEEN LAMBDA = 0.5 AND LAMBDA = 1
Info: FEP VDW ACTIVE FOR ANNIHILATED PARTICLES BETWEEN LAMBDA = 0 AND LAMBDA = 1
Info: FEP VDW ACTIVE FOR EXNIHILATED PARTICLES BETWEEN LAMBDA = 0 AND LAMBDA = 1
Info: FEP BOND ACTIVE FOR ANNIHILATED PARTICLES BETWEEN LAMBDA = 1 AND LAMBDA = 1
Info: FEP BOND ACTIVE FOR EXNIHILATED PARTICLES BETWEEN LAMBDA = 0 AND LAMBDA = 0
Info: LANGEVIN DYNAMICS ACTIVE
Info: LANGEVIN TEMPERATURE   300
Info: LANGEVIN USING BBK INTEGRATOR
Info: LANGEVIN DAMPING COEFFICIENT IS 1 INVERSE PS
Info: LANGEVIN DYNAMICS APPLIED TO HYDROGENS
Info: LANGEVIN PISTON PRESSURE CONTROL ACTIVE
Info:        TARGET PRESSURE IS 1.01325 BAR
Info:     OSCILLATION PERIOD IS 50 FS
Info:             DECAY TIME IS 25 FS
Info:     PISTON TEMPERATURE IS 300 K
Info:       PRESSURE CONTROL IS GROUP-BASED
Info:    INITIAL STRAIN RATE IS 0.000810198 0.000810198 0.000810198
Info:       CELL FLUCTUATION IS ISOTROPIC
Info: PARTICLE MESH EWALD (PME) ACTIVE
Info: PME TOLERANCE               1e-06
Info: PME EWALD COEFFICIENT       0.348832
Info: PME INTERPOLATION ORDER     4
Info: PME GRID DIMENSIONS         36 32 32
Info: PME MAXIMUM GRID SPACING    1
Info: PME CALCULATION WILL BE PERFORMED ON GPU
Info: FULL ELECTROSTATIC EVALUATION FREQUENCY      2
Info: USING VERLET I (r-RESPA) MTS SCHEME.
Info: C1 SPLITTING OF LONG RANGE ELECTROSTATICS
Info: PLACING ATOMS IN PATCHES BY HYDROGEN GROUPS
Info: RIGID BONDS TO HYDROGEN : ALL
Info:         ERROR TOLERANCE : 1e-08
Info:          MAX ITERATIONS : 100
Info: RIGID WATER USING SETTLE ALGORITHM
Info: RANDOM NUMBER SEED     1743994698
Info: USE HYDROGEN BONDS?    NO
Info: Using AMBER format force field!
Info: AMBER PARM FILE        mobley_9897248.prmtop
Info: COORDINATE PDB         mobley_9897248.pdb
Info: Exclusions will be read from PARM file!
Info: SCNB (VDW SCALING)     2
Info: USING ARITHMETIC MEAN TO COMBINE L-J SIGMA PARAMETERS
Info: BINARY COORDINATES     mobley_9897248_equil.coor
Info: SUMMARY OF PARAMETERS:
Info: 10 BONDS
Info: 13 ANGLES
Info:   13 HARMONIC
Info:   0 COSINE-BASED
Info: 9 DIHEDRAL
Info: 0 IMPROPER
Info: 0 CROSSTERM
Info: 0 VDW
Info: 36 VDW_PAIRS
Info: 0 NBTHOLE_PAIRS
Info: To read alchdata from file: mobley_9897248.pdb
Info: To read alchflag data from column: 5
Info: STRUCTURE SUMMARY:
Info: 2912 ATOMS
Info: 2911 BONDS
Info: 49 ANGLES
Info: 90 DIHEDRALS
Info: 0 IMPROPERS
Info: 0 CROSSTERMS
Info: 3016 EXCLUSIONS
Info: 2901 RIGID BONDS
Info: ALCH: 0 ATOMS TO DISAPPEAR IN FINAL STATE
Info: ALCH: 29 ATOMS TO APPEAR IN FINAL STATE
Info: 5835 DEGREES OF FREEDOM
Info: 972 HYDROGEN GROUPS
Info: 4 ATOMS IN LARGEST HYDROGEN GROUP
Info: 972 MIGRATION GROUPS
Info: 4 ATOMS IN LARGEST MIGRATION GROUP
Info: TOTAL MASS = 17467.6 amu
Info: TOTAL CHARGE = 0.000399992 e
Info: MASS DENSITY = 0.966763 g/cm^3
Info: ATOM DENSITY = 0.0970551 atoms/A^3
Info: ADDED 0 IMPLICIT EXCLUSIONS
Info: NONBONDED TABLE R-SQUARED SPACING: 0.0625
Info: NONBONDED TABLE SIZE: 705 POINTS
Info: REMOVING COM VELOCITY 0.0235077 0.142641 -0.0282178
Info: Use 3D box decompostion in PME FFT.
Info: Updated CUDA force table with 4096 elements.
Info: Updated CUDA LJ table with 8 x 8 elements.
Info: Found 30 unique exclusion lists needing 120 bytes
TCL: Running for 1500000 steps
ETITLE: TS BOND ANGLE DIHED IMPRP ELECT VDW BOUNDARY MISC KINETIC TOTAL TEMP POTENTIAL TOTALAVG TEMPAVG PRESSURE GPRESSURE VOLUME PRESSAVG GPRESSAVG
ENERGY: 0 3.9633 11.0405 27.9318 0.0000 -10509.9189 1414.5074 0.0000 0.0000 1778.8904 -7273.5855 306.8306 -9052.4759 -7273.5855 306.8306 -2.2062 74.3358 30003.5674 -2.2062 74.3358
ENERGY: 300000 2.5229 8.3522 28.9009 0.0000 -10431.6583 1365.7270 0.0000 0.0000 1760.3392 -7265.8161 303.6308 -9026.1553 -7301.2958 302.1651 -225.8223 -128.1934 29593.5593 -53.1391 23.5737
ENERGY: 600000 3.1832 18.2489 26.6614 0.0000 -10321.6412 1326.4442 0.0000 0.0000 1678.6885 -7268.4150 289.5474 -8947.1034 -7288.3242 301.8560 -599.0215 -602.0987 30017.6274 -137.6200 -79.8165
ENERGY: 900000 3.9083 15.4343 27.5653 0.0000 -10395.9301 1335.6596 0.0000 0.0000 1741.4007 -7271.9619 300.3642 -9013.3626 -7292.0872 301.7701 -705.2389 -607.0023 29758.2890 -104.8112 -44.5000
ENERGY: 1200000 5.3645 13.8585 28.2858 0.0000 -10553.9040 1464.3976 0.0000 0.0000 1771.3293 -7270.6683 305.5265 -9041.9976 -7291.1471 301.3771 208.5491 308.5382 29921.5836 -130.3775 -68.1021
ENERGY: 1500000 1.3341 13.5832 29.0854 0.0000 -10423.0723 1381.8781 0.0000 0.0000 1781.3398 -7215.8517 307.2531 -8997.1915 -7289.7563 301.1990 33.8697 131.0498 29533.4070 -203.9762 -138.1386
TCL: Running FEP window   2: Lambda1 0.05   Lambda2 0.1    [dLambda 0.05  ]
TCL: Setting parameter firsttimestep to 0
TCL: Setting parameter alchLambda to 0.05
Info: NONBONDED TABLE R-SQUARED SPACING: 0.0625
Info: NONBONDED TABLE SIZE: 705 POINTS
TCL: Setting parameter alchLambda2 to 0.1
Info: NONBONDED TABLE R-SQUARED SPACING: 0.0625
Info: NONBONDED TABLE SIZE: 705 POINTS
TCL: Running for 1500000 steps
ETITLE: TS BOND ANGLE DIHED IMPRP ELECT VDW BOUNDARY MISC KINETIC TOTAL TEMP POTENTIAL TOTALAVG TEMPAVG PRESSURE GPRESSURE VOLUME PRESSAVG GPRESSAVG
ENERGY: 0 1.3341 13.5832 29.0854 0.0000 -10423.0711 1384.6155 0.0000 0.0000 1780.4891 -7213.9638 307.1064 -8994.4529 -7213.9638 307.1064 59.8455 139.7958 29533.4070 59.8455 139.7958
ENERGY: 300000 2.9302 11.1282 27.8219 0.0000 -10490.1462 1370.6795 0.0000 0.0000 1803.8213 -7273.7651 311.1308 -9077.5865 -7238.0661 307.3816 -569.3383 -496.7094 29878.1512 -402.8424 -310.1571
ENERGY: 600000 1.8083 9.3744 29.7800 0.0000 -10729.6777 1545.9534 0.0000 0.0000 1736.4791 -7406.2826 299.5153 -9142.7617 -7298.1403 302.7573 706.6496 743.4159 29576.0285 -221.3757 -135.1023
ENERGY: 900000 1.1434 11.2003 27.4054 0.0000 -10724.7871 1565.9388 0.0000 0.0000 1695.3093 -7423.7898 292.4142 -9119.0991 -7319.8160 300.0449 1298.7466 1361.2079 29083.6515 -61.2248 16.4975
ENERGY: 1200000 3.9001 12.0673 28.6110 0.0000 -10499.2283 1395.9510 0.0000 0.0000 1729.0110 -7329.6879 298.2272 -9058.6989 -7322.8867 298.6376 -161.1417 -140.2292 29540.6471 -116.6160 -50.4925
ENERGY: 1500000 4.4233 10.7450 29.8461 0.0000 -10298.5648 1266.2185 0.0000 0.0000 1702.8419 -7284.4901 293.7135 -8987.3319 -7321.7673 297.5969 -1144.7694 -1127.2208 30019.5855 -286.0075 -223.2443
TCL: Running FEP window   3: Lambda1 0.1    Lambda2 0.15000000000000002 [dLambda 0.05000000000000002]
TCL: Setting parameter firsttimestep to 0
TCL: Setting parameter alchLambda to 0.1
Info: NONBONDED TABLE R-SQUARED SPACING: 0.0625
Info: NONBONDED TABLE SIZE: 705 POINTS
TCL: Setting parameter alchLambda2 to 0.15000000000000002
Info: NONBONDED TABLE R-SQUARED SPACING: 0.0625
Info: NONBONDED TABLE SIZE: 705 POINTS
TCL: Running for 1500000 steps
ETITLE: TS BOND ANGLE DIHED IMPRP ELECT VDW BOUNDARY MISC KINETIC TOTAL TEMP POTENTIAL TOTALAVG TEMPAVG PRESSURE GPRESSURE VOLUME PRESSAVG GPRESSAVG
ENERGY: 0 4.4233 10.7450 29.8461 0.0000 -10298.5635 1267.6030 0.0000 0.0000 1701.9768 -7283.9692 293.5642 -8985.9460 -7283.9692 293.5642 -1211.5943 -1118.2114 30019.5855 -1211.5943 -1118.2114
ENERGY: 300000 2.0085 16.7703 25.9833 0.0000 -10550.0202 1474.6954 0.0000 0.0000 1732.6552 -7297.9074 298.8558 -9030.5626 -7275.7596 296.6909 661.3633 727.9541 29404.0438 -403.1786 -319.6939
ENERGY: 600000 5.2624 16.9270 26.9747 0.0000 -10591.6058 1436.9971 0.0000 0.0000 1729.0801 -7376.3645 298.2391 -9105.4446 -7300.0239 297.1243 81.8130 99.3719 29287.4047 -265.3649 -214.3704
ENERGY: 900000 3.5580 11.0158 26.7755 0.0000 -10445.8010 1374.3083 0.0000 0.0000 1750.0344 -7280.1090 301.8534 -9030.1434 -7302.5378 298.0774 -268.7152 -194.2766 29640.6370 -306.9665 -246.4440
ENERGY: 1200000 2.9732 14.0819 26.3839 0.0000 -10706.3517 1540.9301 0.0000 0.0000 1701.8332 -7420.1494 293.5395 -9121.9826 -7300.0049 298.6720 961.4706 1022.3749 29545.6790 -253.9626 -191.4634
ENERGY: 1500000 3.9902 15.1947 24.8341 0.0000 -10508.9474 1427.1035 0.0000 0.0000 1765.5296 -7272.2953 304.5261 -9037.8249 -7288.5186 299.7619 61.8693 96.7326 29619.5763 -192.5890 -127.2592
TCL: Running FEP window   4: Lambda1 0.15000000000000002 Lambda2 0.2    [dLambda 0.04999999999999999]
TCL: Setting parameter firsttimestep to 0
TCL: Setting parameter alchLambda to 0.15000000000000002
Info: NONBONDED TABLE R-SQUARED SPACING: 0.0625
Info: NONBONDED TABLE SIZE: 705 POINTS
TCL: Setting parameter alchLambda2 to 0.2
Info: NONBONDED TABLE R-SQUARED SPACING: 0.0625
Info: NONBONDED TABLE SIZE: 705 POINTS
TCL: Running for 1500000 steps
ETITLE: TS BOND ANGLE DIHED IMPRP ELECT VDW BOUNDARY MISC KINETIC TOTAL TEMP POTENTIAL TOTALAVG TEMPAVG PRESSURE GPRESSURE VOLUME PRESSAVG GPRESSAVG
ENERGY: 0 3.9902 15.1947 24.8341 0.0000 -10508.9458 1426.7852 0.0000 0.0000 1764.6579 -7273.4838 304.3757 -9038.1417 -7273.4838 304.3757 20.5816 98.5805 29619.5763 20.5816 98.5805
ENERGY: 300000 3.3462 11.8935 28.0711 0.0000 -10476.5265 1375.4346 0.0000 0.0000 1766.4587 -7291.3223 304.6864 -9057.7811 -7297.4260 305.3681 -249.6878 -213.4645 29909.2084 -2.1777 75.2602
ENERGY: 600000 3.5369 15.5544 30.2724 0.0000 -10454.1541 1386.7306 0.0000 0.0000 1761.6161 -7256.4437 303.8511 -9018.0598 -7283.7881 303.4839 -222.6089 -214.3024 29979.5575 -69.4698 0.7393
ENERGY: 900000 6.4575 14.3076 25.9281 0.0000 -10360.4309 1384.7816 0.0000 0.0000 1691.0266 -7237.9294 291.6755 -8928.9560 -7278.8614 300.8673 -423.9250 -305.4812 30152.5278 -75.5406 1.7425
ENERGY: 1200000 1.8595 9.7762 26.9758 0.0000 -10519.3576 1442.7751 0.0000 0.0000 1750.4755 -7287.4954 301.9295 -9037.9709 -7286.1531 300.6452 204.0756 270.1348 29985.7495 -143.7592 -76.4448
ENERGY: 1500000 2.6422 15.6970 25.6929 0.0000 -10569.7115 1516.5548 0.0000 0.0000 1797.9011 -7211.2235 310.1097 -9009.1246 -7292.3921 301.0194 1224.7850 1302.5850 29435.6591 -17.6734 54.4664
TCL: Running FEP window   5: Lambda1 0.2    Lambda2 0.25   [dLambda 0.04999999999999999]
TCL: Setting parameter firsttimestep to 0
TCL: Setting parameter alchLambda to 0.2
Info: NONBONDED TABLE R-SQUARED SPACING: 0.0625
Info: NONBONDED TABLE SIZE: 705 POINTS
TCL: Setting parameter alchLambda2 to 0.25
Info: NONBONDED TABLE R-SQUARED SPACING: 0.0625
Info: NONBONDED TABLE SIZE: 705 POINTS
TCL: Running for 1500000 steps
ETITLE: TS BOND ANGLE DIHED IMPRP ELECT VDW BOUNDARY MISC KINETIC TOTAL TEMP POTENTIAL TOTALAVG TEMPAVG PRESSURE GPRESSURE VOLUME PRESSAVG GPRESSAVG
ENERGY: 0 2.6422 15.6970 25.6929 0.0000 -10569.7117 1516.8859 0.0000 0.0000 1797.0659 -7211.7277 309.9656 -9008.7936 -7211.7277 309.9656 1212.8053 1309.8456 29435.6591 1212.8053 1309.8456
ENERGY: 300000 3.4589 12.1383 26.4511 0.0000 -10473.3011 1380.6202 0.0000 0.0000 1804.8287 -7245.8037 311.3046 -9050.6324 -7251.3462 307.7345 -74.0402 -63.3054 29415.3863 49.7056 135.3319
ENERGY: 600000 2.3923 13.5534 28.0392 0.0000 -10344.3750 1285.2271 0.0000 0.0000 1689.6749 -7325.4880 291.4424 -9015.1630 -7282.3233 302.1196 -1083.8118 -980.7325 29785.5406 -178.5743 -89.3511
ENERGY: 900000 3.2747 12.1138 28.7636 0.0000 -10513.1231 1392.7460 0.0000 0.0000 1812.7237 -7263.5012 312.6664 -9076.2250 -7274.0771 303.7578 -170.6349 -77.3512 29571.3358 -163.5774 -79.2407
ENERGY: 1200000 4.9833 12.3155 25.5564 0.0000 -10319.1552 1333.6619 0.0000 0.0000 1741.0450 -7201.5931 300.3029 -8942.6380 -7267.6191 303.7336 -645.2567 -587.4415 30448.1534 -133.1014 -51.5208
ENERGY: 1500000 3.4810 10.0106 29.7294 0.0000 -10623.4554 1498.6629 0.0000 0.0000 1687.5905 -7393.9811 291.0828 -9081.5715 -7277.5257 301.9869 488.1089 566.9844 29650.5041 -83.3382 -7.2495
TCL: Running FEP window   6: Lambda1 0.25   Lambda2 0.3    [dLambda 0.04999999999999999]
TCL: Setting parameter firsttimestep to 0
TCL: Setting parameter alchLambda to 0.25
Info: NONBONDED TABLE R-SQUARED SPACING: 0.0625
Info: NONBONDED TABLE SIZE: 705 POINTS
TCL: Setting parameter alchLambda2 to 0.3
Info: NONBONDED TABLE R-SQUARED SPACING: 0.0625
Info: NONBONDED TABLE SIZE: 705 POINTS
TCL: Running for 1500000 steps
ETITLE: TS BOND ANGLE DIHED IMPRP ELECT VDW BOUNDARY MISC KINETIC TOTAL TEMP POTENTIAL TOTALAVG TEMPAVG PRESSURE GPRESSURE VOLUME PRESSAVG GPRESSAVG
ENERGY: 0 3.4810 10.0106 29.7294 0.0000 -10623.4558 1497.9369 0.0000 0.0000 1686.7237 -7395.5743 290.9333 -9082.2980 -7395.5743 290.9333 483.8510 567.7215 29650.5041 483.8510 567.7215
ENERGY: 300000 2.7602 14.4437 27.3868 0.0000 -10303.8019 1311.6962 0.0000 0.0000 1711.1890 -7236.3258 295.1532 -8947.5148 -7321.0645 293.4161 -534.9720 -470.0815 29956.2145 -281.7987 -205.6193
ENERGY: 600000 2.9966 14.8848 26.5253 0.0000 -10684.6135 1506.4420 0.0000 0.0000 1729.3094 -7404.4553 298.2787 -9133.7647 -7323.8191 295.6341 551.2938 591.3851 29873.9047 -126.5033 -50.2151
ENERGY: 900000 1.2667 11.2285 25.8943 0.0000 -10537.1588 1432.3607 0.0000 0.0000 1780.5834 -7285.8251 307.1227 -9066.4086 -7303.5381 297.8582 459.9335 527.3257 29503.0513 -169.8053 -98.8867
ENERGY: 1200000 5.5741 13.4520 26.2005 0.0000 -10528.7179 1366.5939 0.0000 0.0000 1685.6402 -7431.2572 290.7464 -9116.8974 -7316.9753 297.4901 -657.5597 -610.3511 29901.4526 -168.7526 -97.4023
ENERGY: 1500000 4.2914 16.0651 26.5597 0.0000 -10534.2882 1390.3957 0.0000 0.0000 1801.2849 -7295.6914 310.6933 -9096.9763 -7308.0012 299.2485 -318.7387 -247.9085 29650.0606 -183.5801 -115.8156
TCL: Running FEP window   7: Lambda1 0.3    Lambda2 0.35   [dLambda 0.04999999999999999]
TCL: Setting parameter firsttimestep to 0
TCL: Setting parameter alchLambda to 0.3
Info: NONBONDED TABLE R-SQUARED SPACING: 0.0625
Info: NONBONDED TABLE SIZE: 705 POINTS
TCL: Setting parameter alchLambda2 to 0.35
Info: NONBONDED TABLE R-SQUARED SPACING: 0.0625
Info: NONBONDED TABLE SIZE: 705 POINTS
TCL: Running for 1500000 steps
ETITLE: TS BOND ANGLE DIHED IMPRP ELECT VDW BOUNDARY MISC KINETIC TOTAL TEMP POTENTIAL TOTALAVG TEMPAVG PRESSURE GPRESSURE VOLUME PRESSAVG GPRESSAVG
ENERGY: 0 4.2914 16.0651 26.5597 0.0000 -10534.2900 1391.2656 0.0000 0.0000 1800.4269 -7295.6812 310.5453 -9096.1081 -7295.6812 310.5453 -310.5805 -235.4639 29650.0606 -310.5805 -235.4639
ENERGY: 300000 3.2854 16.0988 26.0553 0.0000 -10527.1226 1452.7471 0.0000 0.0000 1735.4325 -7293.5034 299.3348 -9028.9359 -7282.4074 303.6157 241.8933 227.3008 30018.8587 10.4777 60.7071
ENERGY: 600000 3.9471 16.9719 26.7422 0.0000 -10558.1327 1422.9776 0.0000 0.0000 1751.7188 -7335.7751 302.1440 -9087.4939 -7289.7536 303.1201 329.8123 364.6210 29496.2243 111.6753 161.2525
ENERGY: 900000 2.2440 8.6648 26.4255 0.0000 -10549.4252 1442.4115 0.0000 0.0000 1704.8317 -7364.8476 294.0567 -9069.6793 -7298.7308 300.6437 264.0517 343.8418 29295.3515 2.3075 61.3969
ENERGY: 1200000 3.8789 11.7709 27.3995 0.0000 -10460.2354 1362.2659 0.0000 0.0000 1676.0426 -7378.8776 289.0910 -9054.9202 -7302.7150 300.0178 -310.2960 -165.6616 29490.7475 -11.2076 53.8822
ENERGY: 1500000 2.4599 17.2066 24.8520 0.0000 -10639.7886 1502.8303 0.0000 0.0000 1778.3369 -7314.1029 306.7352 -9092.4398 -7304.7132 299.6549 748.1083 765.7742 29524.8213 0.8389 57.8334
TCL: Running FEP window   8: Lambda1 0.35   Lambda2 0.39999999999999997 [dLambda 0.04999999999999999]
TCL: Setting parameter firsttimestep to 0
TCL: Setting parameter alchLambda to 0.35
Info: NONBONDED TABLE R-SQUARED SPACING: 0.0625
Info: NONBONDED TABLE SIZE: 705 POINTS
TCL: Setting parameter alchLambda2 to 0.39999999999999997
Info: NONBONDED TABLE R-SQUARED SPACING: 0.0625
Info: NONBONDED TABLE SIZE: 705 POINTS
TCL: Running for 1500000 steps
ETITLE: TS BOND ANGLE DIHED IMPRP ELECT VDW BOUNDARY MISC KINETIC TOTAL TEMP POTENTIAL TOTALAVG TEMPAVG PRESSURE GPRESSURE VOLUME PRESSAVG GPRESSAVG
ENERGY: 0 2.4599 17.2066 24.8520 0.0000 -10639.7879 1503.9674 0.0000 0.0000 1777.5031 -7313.7990 306.5913 -9091.3020 -7313.7990 306.5913 704.2160 779.4921 29524.8213 704.2160 779.4921
ENERGY: 300000 3.8363 14.8904 27.3252 0.0000 -10432.1961 1321.7652 0.0000 0.0000 1708.1802 -7356.1989 294.6342 -9064.3791 -7309.9285 301.7589 -852.4453 -842.9649 30107.0913 -399.1433 -354.9636
ENERGY: 600000 1.2563 11.2762 27.7507 0.0000 -10354.1179 1331.9728 0.0000 0.0000 1804.3624 -7177.4995 311.2241 -8981.8618 -7293.3536 302.5809 -643.0129 -545.3028 30266.8358 -328.5673 -274.4366
ENERGY: 900000 5.4002 16.3348 27.8774 0.0000 -10576.2247 1431.8433 0.0000 0.0000 1791.9782 -7302.7907 309.0881 -9094.7689 -7291.6651 303.1571 18.3659 132.3258 29920.3059 -271.0614 -205.0927
ENERGY: 1200000 1.7913 14.9531 30.7706 0.0000 -10576.3747 1440.0567 0.0000 0.0000 1729.2134 -7359.5896 298.2621 -9088.8030 -7290.5146 301.8683 354.1415 406.1520 29502.6075 -216.8630 -149.3190
ENERGY: 1500000 1.2207 16.3810 25.9864 0.0000 -10611.6121 1496.4542 0.0000 0.0000 1821.3539 -7250.2159 314.1549 -9071.5698 -7294.4378 302.1980 828.5877 926.7648 29660.9907 -100.2607 -26.9369
TCL: Running FEP window   9: Lambda1 0.39999999999999997 Lambda2 0.44999999999999996 [dLambda 0.04999999999999999]
TCL: Setting parameter firsttimestep to 0
TCL: Setting parameter alchLambda to 0.39999999999999997
Info: NONBONDED TABLE R-SQUARED SPACING: 0.0625
Info: NONBONDED TABLE SIZE: 705 POINTS
TCL: Setting parameter alchLambda2 to 0.44999999999999996
Info: NONBONDED TABLE R-SQUARED SPACING: 0.0625
Info: NONBONDED TABLE SIZE: 705 POINTS
TCL: Running for 1500000 steps
ETITLE: TS BOND ANGLE DIHED IMPRP ELECT VDW BOUNDARY MISC KINETIC TOTAL TEMP POTENTIAL TOTALAVG TEMPAVG PRESSURE GPRESSURE VOLUME PRESSAVG GPRESSAVG
ENERGY: 0 1.2207 16.3810 25.9864 0.0000 -10611.6108 1496.4612 0.0000 0.0000 1820.4949 -7251.0665 314.0068 -9071.5615 -7251.0665 314.0068 851.9836 935.3094 29660.9907 851.9836 935.3094
ENERGY: 300000 0.8726 16.8837 25.3898 0.0000 -10484.0859 1403.2828 0.0000 0.0000 1721.4585 -7316.1986 296.9245 -9037.6570 -7315.6946 302.9853 6.0137 72.3935 29811.3795 124.7027 210.5687
ENERGY: 600000 2.8845 14.5469 26.2034 0.0000 -10505.4038 1366.1875 0.0000 0.0000 1737.7218 -7357.8597 299.7297 -9095.5814 -7311.7073 303.3918 -388.8660 -307.2552 29572.6512 10.8139 88.7769
ENERGY: 900000 4.0443 11.2294 26.9320 0.0000 -10383.1174 1367.2630 0.0000 0.0000 1754.7732 -7218.8755 302.6708 -8973.6487 -7296.2373 303.7842 -458.4327 -353.4593 30247.0606 -17.0541 66.7391
ENERGY: 1200000 3.1778 13.2636 27.7546 0.0000 -10387.9889 1326.0258 0.0000 0.0000 1669.7693 -7347.9978 288.0090 -9017.7671 -7302.9742 301.8108 -667.6049 -618.2348 30010.9705 -80.7791 8.4210
ENERGY: 1500000 3.4527 13.7988 29.4387 0.0000 -10288.6859 1225.0668 0.0000 0.0000 1793.9465 -7222.9823 309.4276 -9016.9289 -7298.5653 301.9684 -1515.1435 -1441.5581 30430.5072 -156.6145 -79.2577
TCL: Running FEP window  10: Lambda1 0.44999999999999996 Lambda2 0.49999999999999994 [dLambda 0.04999999999999999]
TCL: Setting parameter firsttimestep to 0
TCL: Setting parameter alchLambda to 0.44999999999999996
Info: NONBONDED TABLE R-SQUARED SPACING: 0.0625
Info: NONBONDED TABLE SIZE: 705 POINTS
TCL: Setting parameter alchLambda2 to 0.49999999999999994
Info: NONBONDED TABLE R-SQUARED SPACING: 0.0625
Info: NONBONDED TABLE SIZE: 705 POINTS
TCL: Running for 1500000 steps
ETITLE: TS BOND ANGLE DIHED IMPRP ELECT VDW BOUNDARY MISC KINETIC TOTAL TEMP POTENTIAL TOTALAVG TEMPAVG PRESSURE GPRESSURE VOLUME PRESSAVG GPRESSAVG
ENERGY: 0 3.4527 13.7988 29.4387 0.0000 -10288.6841 1225.1285 0.0000 0.0000 1793.0497 -7223.8157 309.2729 -9016.8654 -7223.8157 309.2729 -1514.1927 -1432.1210 30430.5072 -1514.1927 -1432.1210
ENERGY: 300000 2.7954 17.0402 31.1222 0.0000 -10519.7966 1466.7164 0.0000 0.0000 1736.3310 -7265.7914 299.4898 -9002.1224 -7292.5464 302.3327 400.6822 440.1826 30214.8726 -371.5128 -280.1992
ENERGY: 600000 2.4237 15.3379 30.2295 0.0000 -10377.0343 1349.7124 0.0000 0.0000 1742.5926 -7236.7383 300.5698 -8979.3309 -7289.0310 301.6991 -61.2146 -40.7402 29652.6898 -240.1553 -171.9657
ENERGY: 900000 7.1388 14.8142 27.2863 0.0000 -10432.5354 1359.8759 0.0000 0.0000 1711.1033 -7312.3169 295.1384 -9023.4202 -7287.6644 301.4331 -290.2606 -226.4545 29660.5191 -272.2528 -207.5021
ENERGY: 1200000 2.0995 14.5747 29.8883 0.0000 -10588.7936 1462.5633 0.0000 0.0000 1704.6988 -7374.9689 294.0338 -9079.6678 -7296.3788 300.1431 239.2949 330.1301 29965.8093 -256.3496 -183.6933
ENERGY: 1500000 7.2126 11.5271 29.8642 0.0000 -10559.6013 1462.1272 0.0000 0.0000 1747.6032 -7301.2670 301.4341 -9048.8702 -7291.5601 301.5599 422.5603 457.3167 29647.7682 -95.0063 -32.4334
TCL: Running FEP window  11: Lambda1 0.49999999999999994 Lambda2 0.5499999999999999 [dLambda 0.04999999999999999]
TCL: Setting parameter firsttimestep to 0
TCL: Setting parameter alchLambda to 0.49999999999999994
Info: NONBONDED TABLE R-SQUARED SPACING: 0.0625
Info: NONBONDED TABLE SIZE: 705 POINTS
TCL: Setting parameter alchLambda2 to 0.5499999999999999
Info: NONBONDED TABLE R-SQUARED SPACING: 0.0625
Info: NONBONDED TABLE SIZE: 705 POINTS
TCL: Running for 1500000 steps
ETITLE: TS BOND ANGLE DIHED IMPRP ELECT VDW BOUNDARY MISC KINETIC TOTAL TEMP POTENTIAL TOTALAVG TEMPAVG PRESSURE GPRESSURE VOLUME PRESSAVG GPRESSAVG
ENERGY: 0 7.2126 11.5271 29.8642 0.0000 -10559.6013 1461.4401 0.0000 0.0000 1746.7857 -7302.7716 301.2931 -9049.5573 -7302.7716 301.2931 383.0806 459.0747 29647.7682 383.0806 459.0747
ENERGY: 300000 3.4230 16.1753 26.9321 0.0000 -10649.9912 1492.6244 0.0000 0.0000 1767.5904 -7343.2460 304.8816 -9110.8364 -7332.6914 301.4010 411.5372 506.5954 29775.5353 331.3113 403.0655
ENERGY: 600000 1.5678 13.9746 26.3219 0.0000 -10359.2675 1363.6691 0.0000 0.0000 1719.7444 -7233.9896 296.6289 -8953.7341 -7311.0777 300.5380 -168.2549 -89.2630 30143.7367 240.6585 314.3764
ENERGY: 900000 2.8271 14.0774 29.0858 0.0000 -10615.9050 1485.6321 0.0000 0.0000 1713.2095 -7371.0732 295.5017 -9084.2827 -7321.8531 300.2413 676.3333 703.0336 29292.8830 294.8601 369.4220
ENERGY: 1200000 3.5402 14.3838 26.5651 0.0000 -10551.6740 1447.8922 0.0000 0.0000 1743.3930 -7315.8997 300.7079 -9059.2927 -7316.3743 299.9765 312.8592 348.0483 29603.6200 345.2003 412.1160
ENERGY: 1500000 2.9671 13.2247 26.6247 0.0000 -10483.4073 1424.4051 0.0000 0.0000 1790.5580 -7225.6278 308.8431 -9016.1858 -7309.8151 300.8540 185.7712 219.6841 30300.8132 254.5319 323.1919
TCL: Running FEP window  12: Lambda1 0.5499999999999999 Lambda2 0.6    [dLambda 0.050000000000000044]
TCL: Setting parameter firsttimestep to 0
TCL: Setting parameter alchLambda to 0.5499999999999999
Info: NONBONDED TABLE R-SQUARED SPACING: 0.0625
Info: NONBONDED TABLE SIZE: 705 POINTS
TCL: Setting parameter alchLambda2 to 0.6
Info: NONBONDED TABLE R-SQUARED SPACING: 0.0625
Info: NONBONDED TABLE SIZE: 705 POINTS
TCL: Running for 1500000 steps
ETITLE: TS BOND ANGLE DIHED IMPRP ELECT VDW BOUNDARY MISC KINETIC TOTAL TEMP POTENTIAL TOTALAVG TEMPAVG PRESSURE GPRESSURE VOLUME PRESSAVG GPRESSAVG
ENERGY: 0 2.9671 13.2247 26.6247 0.0000 -10484.1161 1424.8167 0.0000 0.0000 1789.6703 -7226.8126 308.6900 -9016.4829 -7226.8126 308.6900 144.1542 230.2319 30300.8132 144.1542 230.2319
ENERGY: 300000 1.7635 12.2831 27.3359 0.0000 -10505.2909 1387.0972 0.0000 0.0000 1723.1343 -7353.6769 297.2136 -9076.8112 -7324.7975 302.2741 -89.9145 -58.2643 29704.3514 -36.7988 18.7660
ENERGY: 600000 5.0278 12.5157 28.6476 0.0000 -10461.7486 1393.1320 0.0000 0.0000 1697.8882 -7324.5373 292.8590 -9022.4255 -7321.7131 301.0191 -440.4349 -360.9968 30176.2781 -123.6534 -65.4240
ENERGY: 900000 5.2773 10.8349 30.4469 0.0000 -10510.8260 1364.2128 0.0000 0.0000 1748.7318 -7351.3223 301.6288 -9100.0541 -7320.6325 301.3172 -846.3781 -671.9792 30053.8646 -88.3049 -19.8873
ENERGY: 1200000 6.4248 16.6830 28.3470 0.0000 -10613.5996 1474.3037 0.0000 0.0000 1782.5792 -7305.2618 307.4669 -9087.8411 -7315.4191 302.7143 375.3334 446.1023 29640.2882 -112.1920 -46.1905
ENERGY: 1500000 4.1265 9.3721 26.3495 0.0000 -10482.2690 1422.1329 0.0000 0.0000 1707.4263 -7312.8617 294.5042 -9020.2880 -7305.5238 302.4987 301.3426 326.7021 29720.3813 -100.5701 -36.5069
TCL: Running FEP window  13: Lambda1 0.6    Lambda2 0.65   [dLambda 0.050000000000000044]
TCL: Setting parameter firsttimestep to 0
TCL: Setting parameter alchLambda to 0.6
Info: NONBONDED TABLE R-SQUARED SPACING: 0.0625
Info: NONBONDED TABLE SIZE: 705 POINTS
TCL: Setting parameter alchLambda2 to 0.65
Info: NONBONDED TABLE R-SQUARED SPACING: 0.0625
Info: NONBONDED TABLE SIZE: 705 POINTS
TCL: Running for 1500000 steps
ETITLE: TS BOND ANGLE DIHED IMPRP ELECT VDW BOUNDARY MISC KINETIC TOTAL TEMP POTENTIAL TOTALAVG TEMPAVG PRESSURE GPRESSURE VOLUME PRESSAVG GPRESSAVG
ENERGY: 0 4.1265 9.3721 26.3495 0.0000 -10482.4622 1422.3546 0.0000 0.0000 1706.5564 -7313.7032 294.3541 -9020.2595 -7313.7032 294.3541 252.9510 341.0265 29720.3813 252.9510 341.0265
ENERGY: 300000 3.7347 14.8107 28.2319 0.0000 -10387.7136 1338.0787 0.0000 0.0000 1790.4699 -7212.3878 308.8279 -9002.8576 -7268.4280 299.1512 -507.0110 -453.3042 29721.1218 -251.3715 -186.6943
ENERGY: 600000 1.8649 19.4103 27.5441 0.0000 -10499.6762 1345.4745 0.0000 0.0000 1716.8471 -7388.5354 296.1291 -9105.3825 -7281.7088 300.1973 -690.1523 -650.0541 29758.4866 -283.9649 -226.6811
ENERGY: 900000 4.0408 15.2159 27.2214 0.0000 -10401.5929 1293.6430 0.0000 0.0000 1730.5132 -7330.9587 298.4863 -9061.4719 -7289.1085 300.4154 -790.9139 -728.1298 29610.7009 -279.5687 -222.5407
ENERGY: 1200000 2.4239 19.3464 26.9248 0.0000 -10490.0801 1371.8867 0.0000 0.0000 1760.9504 -7308.5478 303.7363 -9069.4983 -7290.6077 301.6813 -124.0184 -93.1156 29494.3711 -222.1881 -168.6664
ENERGY: 1500000 2.2633 8.6896 28.2696 0.0000 -10334.7586 1372.5457 0.0000 0.0000 1804.7288 -7118.2616 311.2873 -8922.9904 -7277.9785 303.1720 -16.0555 33.4772 30328.2632 -188.0496 -135.0815
TCL: Running FEP window  14: Lambda1 0.65   Lambda2 0.7000000000000001 [dLambda 0.050000000000000044]
TCL: Setting parameter firsttimestep to 0
TCL: Setting parameter alchLambda to 0.65
Info: NONBONDED TABLE R-SQUARED SPACING: 0.0625
Info: NONBONDED TABLE SIZE: 705 POINTS
TCL: Setting parameter alchLambda2 to 0.7000000000000001
Info: NONBONDED TABLE R-SQUARED SPACING: 0.0625
Info: NONBONDED TABLE SIZE: 705 POINTS
TCL: Running for 1500000 steps
ETITLE: TS BOND ANGLE DIHED IMPRP ELECT VDW BOUNDARY MISC KINETIC TOTAL TEMP POTENTIAL TOTALAVG TEMPAVG PRESSURE GPRESSURE VOLUME PRESSAVG GPRESSAVG
ENERGY: 0 2.2633 8.6896 28.2696 0.0000 -10334.5529 1372.3921 0.0000 0.0000 1803.8857 -7119.0527 311.1419 -8922.9383 -7119.0527 311.1419 -39.4728 43.9853 30328.2632 -39.4728 43.9853
ENERGY: 300000 2.7204 11.0542 28.2487 0.0000 -10419.8924 1344.2230 0.0000 0.0000 1680.4682 -7353.1778 289.8544 -9033.6461 -7284.4802 302.3129 -550.6363 -512.3961 29970.9431 -85.0502 -30.8184
ENERGY: 600000 3.1374 14.2996 25.8631 0.0000 -10522.1087 1470.8553 0.0000 0.0000 1821.2729 -7186.6805 314.1409 -9007.9534 -7281.9555 302.4150 536.9690 585.9700 29878.6157 89.4486 141.0344
ENERGY: 900000 4.2734 12.9301 25.9318 0.0000 -10544.9501 1437.6134 0.0000 0.0000 1744.6756 -7319.5258 300.9291 -9064.2014 -7285.0918 302.7257 -202.2008 -136.9787 30286.6570 -43.1760 14.7278
ENERGY: 1200000 1.9640 9.3849 28.4634 0.0000 -10497.6427 1369.0460 0.0000 0.0000 1754.5546 -7334.2297 302.6331 -9088.7843 -7291.7950 302.8282 -158.4372 -126.1495 29699.8774 -35.0507 20.1982
ENERGY: 1500000 3.4418 12.2645 27.9988 0.0000 -10443.7839 1309.9962 0.0000 0.0000 1723.8723 -7366.2103 297.3409 -9090.0826 -7296.2473 302.1514 -929.2900 -849.4820 29834.8853 -85.7295 -35.6637
TCL: Running FEP window  15: Lambda1 0.7000000000000001 Lambda2 0.7500000000000001 [dLambda 0.050000000000000044]
TCL: Setting parameter firsttimestep to 0
TCL: Setting parameter alchLambda to 0.7000000000000001
Info: NONBONDED TABLE R-SQUARED SPACING: 0.0625
Info: NONBONDED TABLE SIZE: 705 POINTS
TCL: Setting parameter alchLambda2 to 0.7500000000000001
Info: NONBONDED TABLE R-SQUARED SPACING: 0.0625
Info: NONBONDED TABLE SIZE: 705 POINTS
TCL: Running for 1500000 steps
ETITLE: TS BOND ANGLE DIHED IMPRP ELECT VDW BOUNDARY MISC KINETIC TOTAL TEMP POTENTIAL TOTALAVG TEMPAVG PRESSURE GPRESSURE VOLUME PRESSAVG GPRESSAVG
ENERGY: 0 3.4418 12.2645 27.9988 0.0000 -10443.9286 1310.2470 0.0000 0.0000 1723.0027 -7366.9738 297.1909 -9089.9765 -7366.9738 297.1909 -909.6270 -835.0604 29834.8853 -909.6270 -835.0604
ENERGY: 300000 4.3215 11.0563 27.4906 0.0000 -10543.7774 1419.1588 0.0000 0.0000 1767.4920 -7314.2584 304.8646 -9081.7503 -7287.2965 302.1099 146.6732 158.1679 29709.1986 -183.1999 -120.4221
ENERGY: 600000 1.3354 13.1035 26.6509 0.0000 -10446.4519 1402.2056 0.0000 0.0000 1745.2781 -7257.8784 301.0330 -9003.1566 -7286.8831 300.1884 150.9067 131.9131 30182.5545 -5.8401 51.5400
ENERGY: 900000 3.4081 10.2386 26.5717 0.0000 -10496.2272 1407.6018 0.0000 0.0000 1793.3298 -7255.0772 309.3212 -9048.4070 -7285.0712 301.5545 370.0488 417.4400 29546.4692 7.7829 65.8114
ENERGY: 1200000 3.2188 12.5679 29.5322 0.0000 -10533.8008 1487.0498 0.0000 0.0000 1688.8562 -7312.5758 291.3012 -9001.4320 -7284.8999 300.5878 745.8148 780.1571 30078.0289 107.1040 155.6578
ENERGY: 1500000 2.6977 10.7872 27.9634 0.0000 -10392.7489 1349.3472 0.0000 0.0000 1738.0561 -7263.8973 299.7874 -9001.9534 -7288.4721 300.5171 -322.0504 -336.4050 29917.3357 69.6344 113.7164
TCL: Running FEP window  16: Lambda1 0.7500000000000001 Lambda2 0.8000000000000002 [dLambda 0.050000000000000044]
TCL: Setting parameter firsttimestep to 0
TCL: Setting parameter alchLambda to 0.7500000000000001
Info: NONBONDED TABLE R-SQUARED SPACING: 0.0625
Info: NONBONDED TABLE SIZE: 705 POINTS
TCL: Setting parameter alchLambda2 to 0.8000000000000002
Info: NONBONDED TABLE R-SQUARED SPACING: 0.0625
Info: NONBONDED TABLE SIZE: 705 POINTS
TCL: Running for 1500000 steps
ETITLE: TS BOND ANGLE DIHED IMPRP ELECT VDW BOUNDARY MISC KINETIC TOTAL TEMP POTENTIAL TOTALAVG TEMPAVG PRESSURE GPRESSURE VOLUME PRESSAVG GPRESSAVG
ENERGY: 0 2.6977 10.7872 27.9634 0.0000 -10392.9917 1349.4672 0.0000 0.0000 1737.2328 -7264.8433 299.6454 -9002.0762 -7264.8433 299.6454 -405.5314 -323.1864 29917.3357 -405.5314 -323.1864
ENERGY: 300000 3.5905 16.3650 27.0371 0.0000 -10575.0845 1446.7821 0.0000 0.0000 1762.7964 -7318.5136 304.0547 -9081.3100 -7333.8234 301.9477 432.0156 495.2935 29445.9441 -226.2574 -155.1277
ENERGY: 600000 3.0302 12.5777 31.2578 0.0000 -10390.2978 1360.7198 0.0000 0.0000 1731.6241 -7251.0883 298.6779 -8982.7124 -7302.3365 301.0790 -274.9199 -227.9811 30370.7774 -146.8848 -87.6383
ENERGY: 900000 3.6020 11.9991 27.1983 0.0000 -10591.1450 1450.5774 0.0000 0.0000 1704.5529 -7393.2152 294.0086 -9097.7682 -7320.1986 300.3306 327.4809 417.5205 29523.1624 -45.4900 16.5564
ENERGY: 1200000 3.6475 16.5254 29.4621 0.0000 -10637.2306 1479.6831 0.0000 0.0000 1752.6232 -7355.2894 302.3000 -9107.9126 -7315.5037 300.9282 456.9430 564.5019 29864.8516 -43.9257 23.8213
ENERGY: 1500000 3.1497 13.8768 28.2058 0.0000 -10553.1143 1415.4864 0.0000 0.0000 1767.4258 -7324.9697 304.8532 -9092.3955 -7309.8245 301.5961 -235.7467 -123.4733 30054.4131 -98.2746 -25.5871
TCL: Running FEP window  17: Lambda1 0.8000000000000002 Lambda2 0.8500000000000002 [dLambda 0.050000000000000044]
TCL: Setting parameter firsttimestep to 0
TCL: Setting parameter alchLambda to 0.8000000000000002
Info: NONBONDED TABLE R-SQUARED SPACING: 0.0625
Info: NONBONDED TABLE SIZE: 705 POINTS
TCL: Setting parameter alchLambda2 to 0.8500000000000002
Info: NONBONDED TABLE R-SQUARED SPACING: 0.0625
Info: NONBONDED TABLE SIZE: 705 POINTS
TCL: Running for 1500000 steps
ETITLE: TS BOND ANGLE DIHED IMPRP ELECT VDW BOUNDARY MISC KINETIC TOTAL TEMP POTENTIAL TOTALAVG TEMPAVG PRESSURE GPRESSURE VOLUME PRESSAVG GPRESSAVG
ENERGY: 0 3.1497 13.8768 28.2058 0.0000 -10554.3364 1415.6590 0.0000 0.0000 1766.5251 -7326.9200 304.6978 -9093.4451 -7326.9200 304.6978 -202.7762 -108.4103 30054.4131 -202.7762 -108.4103
ENERGY: 300000 4.9671 14.7055 28.0588 0.0000 -10529.0518 1381.6289 0.0000 0.0000 1706.4565 -7393.2349 294.3369 -9099.6915 -7345.8516 298.7949 -390.6955 -353.9027 29940.3980 -55.2285 -2.6205
ENERGY: 600000 2.5534 12.9736 27.7089 0.0000 -10560.5781 1492.9991 0.0000 0.0000 1728.0546 -7296.2883 298.0623 -9024.3429 -7338.1165 299.1611 994.9098 965.4105 29602.5963 45.7441 86.0282
ENERGY: 900000 3.9099 10.8092 27.6454 0.0000 -10646.2383 1517.9089 0.0000 0.0000 1776.8061 -7309.1588 306.4711 -9085.9649 -7333.1103 300.6641 796.0914 857.0558 29723.6464 137.8570 185.7219
ENERGY: 1200000 1.8291 11.2348 24.7690 0.0000 -10507.3410 1467.4976 0.0000 0.0000 1782.1043 -7219.9062 307.3850 -9002.0105 -7313.4067 301.2192 346.7097 443.9475 30250.6313 128.6988 190.6421
ENERGY: 1500000 2.3876 10.0992 28.7629 0.0000 -10598.3838 1484.8085 0.0000 0.0000 1748.6248 -7323.7009 301.6103 -9072.3256 -7323.8641 301.1861 675.4611 723.4878 29642.2855 140.0872 196.7180
TCL: Running FEP window  18: Lambda1 0.8500000000000002 Lambda2 0.9000000000000002 [dLambda 0.050000000000000044]
TCL: Setting parameter firsttimestep to 0
TCL: Setting parameter alchLambda to 0.8500000000000002
Info: NONBONDED TABLE R-SQUARED SPACING: 0.0625
Info: NONBONDED TABLE SIZE: 705 POINTS
TCL: Setting parameter alchLambda2 to 0.9000000000000002
Info: NONBONDED TABLE R-SQUARED SPACING: 0.0625
Info: NONBONDED TABLE SIZE: 705 POINTS
TCL: Running for 1500000 steps
ETITLE: TS BOND ANGLE DIHED IMPRP ELECT VDW BOUNDARY MISC KINETIC TOTAL TEMP POTENTIAL TOTALAVG TEMPAVG PRESSURE GPRESSURE VOLUME PRESSAVG GPRESSAVG
ENERGY: 0 2.3876 10.0992 28.7629 0.0000 -10600.3465 1486.1677 0.0000 0.0000 1747.7834 -7325.1457 301.4652 -9072.9291 -7325.1457 301.4652 684.0305 746.5270 29642.2855 684.0305 746.5270
ENERGY: 300000 2.9369 15.6729 27.7716 0.0000 -10514.0938 1395.0677 0.0000 0.0000 1789.6410 -7283.0037 308.6849 -9072.6447 -7313.1984 304.5379 -152.9422 -81.9396 29869.3471 269.6621 326.3623
ENERGY: 600000 6.0696 19.5328 27.6771 0.0000 -10565.1425 1388.8114 0.0000 0.0000 1767.8377 -7355.2139 304.9242 -9123.0516 -7308.9035 302.7357 -363.2937 -273.1229 30157.4702 87.3228 142.7005
ENERGY: 900000 3.4141 7.9297 26.6789 0.0000 -10577.4295 1438.0767 0.0000 0.0000 1738.4377 -7362.8924 299.8532 -9101.3301 -7309.0447 302.0877 170.8578 242.7447 29816.0577 102.1191 161.5158
ENERGY: 1200000 1.0723 15.0808 28.0352 0.0000 -10446.6915 1387.7964 0.0000 0.0000 1719.0812 -7295.6255 296.5145 -9014.7068 -7315.1167 301.6967 123.6250 105.6573 29902.1210 77.3979 129.7760
ENERGY: 1500000 2.7269 13.3614 28.4227 0.0000 -10416.6373 1371.8975 0.0000 0.0000 1763.2912 -7236.9376 304.1400 -9000.2288 -7303.3073 302.4084 -116.5958 -76.7601 30080.1988 44.7392 93.9568
TCL: Running FEP window  19: Lambda1 0.9000000000000002 Lambda2 0.9500000000000003 [dLambda 0.050000000000000044]
TCL: Setting parameter firsttimestep to 0
TCL: Setting parameter alchLambda to 0.9000000000000002
Info: NONBONDED TABLE R-SQUARED SPACING: 0.0625
Info: NONBONDED TABLE SIZE: 705 POINTS
TCL: Setting parameter alchLambda2 to 0.9500000000000003
Info: NONBONDED TABLE R-SQUARED SPACING: 0.0625
Info: NONBONDED TABLE SIZE: 705 POINTS
TCL: Running for 1500000 steps
ETITLE: TS BOND ANGLE DIHED IMPRP ELECT VDW BOUNDARY MISC KINETIC TOTAL TEMP POTENTIAL TOTALAVG TEMPAVG PRESSURE GPRESSURE VOLUME PRESSAVG GPRESSAVG
ENERGY: 0 2.7269 13.3614 28.4227 0.0000 -10417.5886 1372.5951 0.0000 0.0000 1762.3727 -7238.1098 303.9816 -9000.4825 -7238.1098 303.9816 -123.3500 -54.3077 30080.1988 -123.3500 -54.3077
ENERGY: 300000 3.4007 7.7955 28.5803 0.0000 -10444.1042 1363.7881 0.0000 0.0000 1715.1140 -7325.4256 295.8302 -9040.5396 -7299.5204 297.8951 -581.6870 -540.9635 30419.8477 -215.6119 -175.7498
ENERGY: 600000 4.2363 12.5806 26.5702 0.0000 -10583.3342 1436.4270 0.0000 0.0000 1777.8858 -7325.6342 306.6574 -9103.5201 -7312.4067 299.1229 -72.5653 11.7346 30447.6453 -157.3000 -106.1486
ENERGY: 900000 6.3612 15.8968 27.8100 0.0000 -10445.7429 1320.9150 0.0000 0.0000 1717.8677 -7356.8923 296.3052 -9074.7600 -7314.2187 299.8331 -848.5819 -798.3756 29761.6262 -194.2438 -139.3942
ENERGY: 1200000 4.2675 11.4092 27.6186 0.0000 -10318.1754 1269.2779 0.0000 0.0000 1793.7072 -7211.8950 309.3863 -9005.6023 -7301.6904 300.8894 -1121.7644 -1069.4757 30482.5041 -201.3284 -147.6513
ENERGY: 1500000 4.4588 9.4786 28.0001 0.0000 -10402.8244 1305.2280 0.0000 0.0000 1750.0662 -7305.5927 301.8589 -9055.6589 -7299.6272 301.3058 -895.4511 -792.5331 29950.9736 -192.9931 -139.6835
TCL: Running FEP window  20: Lambda1 0.9500000000000003 Lambda2 1.0    [dLambda 0.04999999999999971]
TCL: Setting parameter firsttimestep to 0
TCL: Setting parameter alchLambda to 0.9500000000000003
Info: NONBONDED TABLE R-SQUARED SPACING: 0.0625
Info: NONBONDED TABLE SIZE: 705 POINTS
TCL: Setting parameter alchLambda2 to 1.0
Info: NONBONDED TABLE R-SQUARED SPACING: 0.0625
Info: NONBONDED TABLE SIZE: 705 POINTS
TCL: Running for 1500000 steps
ETITLE: TS BOND ANGLE DIHED IMPRP ELECT VDW BOUNDARY MISC KINETIC TOTAL TEMP POTENTIAL TOTALAVG TEMPAVG PRESSURE GPRESSURE VOLUME PRESSAVG GPRESSAVG
ENERGY: 0 4.4588 9.4786 28.0001 0.0000 -10404.8477 1307.3488 0.0000 0.0000 1749.1940 -7306.3674 301.7085 -9055.5614 -7306.3674 301.7085 -832.1807 -756.5190 29950.9736 -832.1807 -756.5190
ENERGY: 300000 3.0464 11.0118 32.3727 0.0000 -10464.3490 1361.3095 0.0000 0.0000 1713.8825 -7342.7261 295.6178 -9056.6086 -7297.0162 296.3017 -610.3765 -537.2340 30207.2337 -383.6357 -313.6322
ENERGY: 600000 4.1957 14.2991 27.6524 0.0000 -10498.4568 1458.8107 0.0000 0.0000 1752.7075 -7240.7914 302.3145 -8993.4989 -7298.5400 297.9097 352.6929 468.2187 30088.9177 -101.8457 -36.6615
ENERGY: 900000 5.0239 10.1535 27.5126 0.0000 -10459.0804 1435.4442 0.0000 0.0000 1787.2355 -7193.7106 308.2700 -8980.9461 -7288.6343 299.9198 232.9986 245.1397 30255.3690 -18.3186 37.0214
ENERGY: 1200000 4.2625 13.3667 30.1954 0.0000 -10526.8998 1441.3832 0.0000 0.0000 1737.4592 -7300.2328 299.6844 -9037.6920 -7293.1333 299.7376 608.2218 670.6834 29566.6786 10.6573 65.0554
ENERGY: 1500000 1.5755 10.6635 30.2648 0.0000 -10512.2548 1402.3818 0.0000 0.0000 1761.1341 -7306.2351 303.7680 -9067.3692 -7295.4346 300.8926 142.0954 186.0845 29959.3929 5.5288 56.0397
TCL: Exiting due to exit command.
