Info: SIMULATION PARAMETERS:
Info: TIMESTEP               2
Info: NUMBER OF STEPS        0
Info: STEPS PER CYCLE        10
Info: PERIODIC CELL BASIS 1  31.5799 0 0
Info: PERIODIC CELL BASIS 2  0 30.5293 0
Info: PERIODIC CELL BASIS 3  0 0 31.4329
Info: PERIODIC CELL CENTER   0 0 0
Info: WRAPPING WATERS AROUND PERIODIC BOUNDARIES ON OUTPUT.
Info: WRAPPING ALL CLUSTERS AROUND PERIODIC BOUNDARIES ON OUTPUT.
Info: FIRST LDB TIMESTEP     50
Info: LAST LDB TIMESTEP     -1
Info: HOM BACKGROUND SCALING 1
Info: PME BACKGROUND SCALING 1
Info: MIN ATOMS PER PATCH    40
Info: EMPTY PATCH LOAD       40 ATOMS
Info: VELOCITY FILE          mobley_5747981_equil.vel
Info: CENTER OF MASS MOVING INITIALLY? NO
Info: DIELECTRIC             1
Info: EXCLUDE                SCALED ONE-FOUR
Info: 1-4 ELECTROSTATICS SCALED BY 0.833333
Info: MODIFIED 1-4 VDW PARAMETERS WILL BE USED
Info: DCD FILENAME           mobley_5747981_prod.dcd
Info: DCD FREQUENCY          100000
Info: DCD FIRST STEP         100000
Info: DCD FILE WILL CONTAIN UNIT CELL DATA
Info: XST FILENAME           mobley_5747981_prod.xst
Info: XST FREQUENCY          100000
Info: NO VELOCITY DCD OUTPUT
Info: NO FORCE DCD OUTPUT
Info: OUTPUT FILENAME        mobley_5747981_prod
Info: BINARY OUTPUT FILES WILL BE USED
Info: RESTART FILENAME       mobley_5747981_prod.restart
Info: RESTART FREQUENCY      100000
Info: BINARY RESTART FILES WILL BE USED
Info: CUTOFF                 9
Info: PAIRLIST DISTANCE      11
Info: PAIRLIST SHRINK RATE   0.01
Info: PAIRLIST GROW RATE     0.01
Info: PAIRLIST TRIGGER       0.3
Info: PAIRLISTS PER CYCLE    2
Info: PAIRLISTS ENABLED
Info: MARGIN                 2
Info: HYDROGEN GROUP CUTOFF  2.5
Info: PATCH DIMENSION        15.5
Info: ENERGY OUTPUT STEPS    100000
Info: ENERGY EVALUATION STEPS    100000
Info: OUTPUT ENERGY PRECISION 4
Info: CROSSTERM ENERGY INCLUDED IN DIHEDRAL
Info: TIMING OUTPUT STEPS    1000000
Info: PRESSURE OUTPUT STEPS  100000
Info: ALCHEMICAL FEP ON
Info: FEP CURRENT LAMBDA VALUE     0
Info: FEP COMPARISON LAMBDA VALUE  0.05
Info: FEP INTRA-ALCHEMICAL NON-BONDED INTERACTIONS WILL BE RETAINED
Info: FEP INTRA-ALCHEMICAL BONDED INTERACTIONS WILL BE RETAINED
Info: FEP VDW SHIFTING COEFFICIENT 5
Info: FEP ELEC. ACTIVE FOR ANNIHILATED PARTICLES BETWEEN LAMBDA = 0 AND LAMBDA = 0.5
Info: FEP ELEC. ACTIVE FOR EXNIHILATED PARTICLES BETWEEN LAMBDA = 0.5 AND LAMBDA = 1
Info: FEP VDW ACTIVE FOR ANNIHILATED PARTICLES BETWEEN LAMBDA = 0 AND LAMBDA = 1
Info: FEP VDW ACTIVE FOR EXNIHILATED PARTICLES BETWEEN LAMBDA = 0 AND LAMBDA = 1
Info: FEP BOND ACTIVE FOR ANNIHILATED PARTICLES BETWEEN LAMBDA = 1 AND LAMBDA = 1
Info: FEP BOND ACTIVE FOR EXNIHILATED PARTICLES BETWEEN LAMBDA = 0 AND LAMBDA = 0
Info: LANGEVIN DYNAMICS ACTIVE
Info: LANGEVIN TEMPERATURE   300
Info: LANGEVIN USING BBK INTEGRATOR
Info: LANGEVIN DAMPING COEFFICIENT IS 1 INVERSE PS
Info: LANGEVIN DYNAMICS APPLIED TO HYDROGENS
Info: LANGEVIN PISTON PRESSURE CONTROL ACTIVE
Info:        TARGET PRESSURE IS 1.01325 BAR
Info:     OSCILLATION PERIOD IS 50 FS
Info:             DECAY TIME IS 25 FS
Info:     PISTON TEMPERATURE IS 300 K
Info:       PRESSURE CONTROL IS GROUP-BASED
Info:    INITIAL STRAIN RATE IS 6.95484e-05 6.95484e-05 6.95484e-05
Info:       CELL FLUCTUATION IS ISOTROPIC
Info: PARTICLE MESH EWALD (PME) ACTIVE
Info: PME TOLERANCE               1e-06
Info: PME EWALD COEFFICIENT       0.348832
Info: PME INTERPOLATION ORDER     4
Info: PME GRID DIMENSIONS         32 32 32
Info: PME MAXIMUM GRID SPACING    1
Info: PME CALCULATION WILL BE PERFORMED ON GPU
Info: FULL ELECTROSTATIC EVALUATION FREQUENCY      2
Info: USING VERLET I (r-RESPA) MTS SCHEME.
Info: C1 SPLITTING OF LONG RANGE ELECTROSTATICS
Info: PLACING ATOMS IN PATCHES BY HYDROGEN GROUPS
Info: RIGID BONDS TO HYDROGEN : ALL
Info:         ERROR TOLERANCE : 1e-08
Info:          MAX ITERATIONS : 100
Info: RIGID WATER USING SETTLE ALGORITHM
Info: RANDOM NUMBER SEED     1744048843
Info: USE HYDROGEN BONDS?    NO
Info: Using AMBER format force field!
Info: AMBER PARM FILE        mobley_5747981.prmtop
Info: COORDINATE PDB         mobley_5747981.pdb
Info: Exclusions will be read from PARM file!
Info: SCNB (VDW SCALING)     2
Info: USING ARITHMETIC MEAN TO COMBINE L-J SIGMA PARAMETERS
Info: BINARY COORDINATES     mobley_5747981_equil.coor
Info: SUMMARY OF PARAMETERS:
Info: 5 BONDS
Info: 6 ANGLES
Info:   6 HARMONIC
Info:   0 COSINE-BASED
Info: 10 DIHEDRAL
Info: 0 IMPROPER
Info: 0 CROSSTERM
Info: 0 VDW
Info: 15 VDW_PAIRS
Info: 0 NBTHOLE_PAIRS
Info: To read alchdata from file: mobley_5747981.pdb
Info: To read alchflag data from column: 5
Info: STRUCTURE SUMMARY:
Info: 2937 ATOMS
Info: 2936 BONDS
Info: 40 ANGLES
Info: 58 DIHEDRALS
Info: 0 IMPROPERS
Info: 0 CROSSTERMS
Info: 3009 EXCLUSIONS
Info: 2927 RIGID BONDS
Info: ALCH: 0 ATOMS TO DISAPPEAR IN FINAL STATE
Info: ALCH: 24 ATOMS TO APPEAR IN FINAL STATE
Info: 5884 DEGREES OF FREEDOM
Info: 981 HYDROGEN GROUPS
Info: 4 ATOMS IN LARGEST HYDROGEN GROUP
Info: 981 MIGRATION GROUPS
Info: 4 ATOMS IN LARGEST MIGRATION GROUP
Info: TOTAL MASS = 17643.7 amu
Info: TOTAL CHARGE = -0.000100121 e
Info: MASS DENSITY = 0.9668 g/cm^3
Info: ATOM DENSITY = 0.0969151 atoms/A^3
Info: ADDED 0 IMPLICIT EXCLUSIONS
Info: NONBONDED TABLE R-SQUARED SPACING: 0.0625
Info: NONBONDED TABLE SIZE: 705 POINTS
Info: REMOVING COM VELOCITY 0.137896 0.0392133 -0.030774
Info: Use 3D box decompostion in PME FFT.
Info: Updated CUDA force table with 4096 elements.
Info: Updated CUDA LJ table with 5 x 5 elements.
Info: Found 27 unique exclusion lists needing 84 bytes
TCL: Running for 1500000 steps
ETITLE: TS BOND ANGLE DIHED IMPRP ELECT VDW BOUNDARY MISC KINETIC TOTAL TEMP POTENTIAL TOTALAVG TEMPAVG PRESSURE GPRESSURE VOLUME PRESSAVG GPRESSAVG
ENERGY: 0 5.3581 13.4780 21.1578 0.0000 -10718.4411 1460.1092 0.0000 0.0000 1772.1701 -7446.1680 303.1260 -9218.3381 -7446.1680 303.1260 -313.1032 -236.3889 30304.8657 -313.1032 -236.3889
ENERGY: 300000 2.7633 12.5068 18.3941 0.0000 -10607.6682 1469.5165 0.0000 0.0000 1816.0862 -7288.4012 310.6377 -9104.4874 -7349.4323 307.4462 552.0554 618.2520 29854.0241 298.6810 363.1737
ENERGY: 600000 3.5417 10.9646 18.4502 0.0000 -10492.0083 1413.8909 0.0000 0.0000 1753.5708 -7291.5901 299.9446 -9045.1609 -7344.0655 304.7002 -71.5366 -9.6178 30346.8160 146.2613 214.5220
ENERGY: 900000 1.2138 14.5660 20.7631 0.0000 -10585.8051 1413.1869 0.0000 0.0000 1810.8720 -7325.2034 309.7458 -9136.0753 -7361.0916 302.9283 95.9502 146.4017 29767.0632 149.4540 206.1550
ENERGY: 1200000 4.0762 12.6513 20.4795 0.0000 -10735.4814 1538.7439 0.0000 0.0000 1697.0898 -7462.4407 290.2836 -9159.5305 -7374.5512 302.1110 1008.4532 1085.3513 29459.6144 132.4216 191.9823
ENERGY: 1500000 7.2909 17.8093 21.0173 0.0000 -10642.7374 1416.3014 0.0000 0.0000 1742.4038 -7437.9148 298.0345 -9180.3186 -7375.6524 301.7700 -420.9648 -366.0614 30225.6610 97.5544 158.1285
TCL: Running FEP window   2: Lambda1 0.05   Lambda2 0.1    [dLambda 0.05  ]
TCL: Setting parameter firsttimestep to 0
TCL: Setting parameter alchLambda to 0.05
Info: NONBONDED TABLE R-SQUARED SPACING: 0.0625
Info: NONBONDED TABLE SIZE: 705 POINTS
TCL: Setting parameter alchLambda2 to 0.1
Info: NONBONDED TABLE R-SQUARED SPACING: 0.0625
Info: NONBONDED TABLE SIZE: 705 POINTS
TCL: Running for 1500000 steps
ETITLE: TS BOND ANGLE DIHED IMPRP ELECT VDW BOUNDARY MISC KINETIC TOTAL TEMP POTENTIAL TOTALAVG TEMPAVG PRESSURE GPRESSURE VOLUME PRESSAVG GPRESSAVG
ENERGY: 0 7.2909 17.8093 21.0173 0.0000 -10642.7367 1419.2137 0.0000 0.0000 1741.5010 -7435.9046 297.8801 -9177.4056 -7435.9046 297.8801 -449.9350 -358.5795 30225.6610 -449.9350 -358.5795
ENERGY: 300000 4.4164 11.6617 20.3803 0.0000 -10714.0615 1543.5829 0.0000 0.0000 1793.9241 -7340.0961 306.8469 -9134.0202 -7396.4011 302.3227 717.4572 784.1890 30338.7835 -228.8156 -161.3285
ENERGY: 600000 7.2133 14.3666 19.9563 0.0000 -10528.4900 1388.9829 0.0000 0.0000 1735.6497 -7362.3212 296.8792 -9097.9709 -7396.7447 299.4692 -376.4458 -297.4602 30014.2257 -164.9462 -84.2325
ENERGY: 900000 4.4611 6.2866 18.9310 0.0000 -10502.0967 1420.3471 0.0000 0.0000 1729.8497 -7322.2212 295.8871 -9052.0709 -7392.2934 299.0969 -140.2852 -80.7445 30329.9933 -39.9451 35.3551
ENERGY: 1200000 2.3525 6.8814 20.1300 0.0000 -10579.5119 1373.2868 0.0000 0.0000 1727.4597 -7449.4014 295.4783 -9176.8612 -7401.3322 298.8225 -552.4597 -474.3224 29993.9989 -81.2400 -11.4882
ENERGY: 1500000 3.4057 11.5523 21.5844 0.0000 -10607.6987 1413.9005 0.0000 0.0000 1726.4723 -7430.7835 295.3094 -9157.2558 -7404.4518 298.4607 -184.0870 -160.3028 29778.0422 -41.5762 25.0620
TCL: Running FEP window   3: Lambda1 0.1    Lambda2 0.15000000000000002 [dLambda 0.05000000000000002]
TCL: Setting parameter firsttimestep to 0
TCL: Setting parameter alchLambda to 0.1
Info: NONBONDED TABLE R-SQUARED SPACING: 0.0625
Info: NONBONDED TABLE SIZE: 705 POINTS
TCL: Setting parameter alchLambda2 to 0.15000000000000002
Info: NONBONDED TABLE R-SQUARED SPACING: 0.0625
Info: NONBONDED TABLE SIZE: 705 POINTS
TCL: Running for 1500000 steps
ETITLE: TS BOND ANGLE DIHED IMPRP ELECT VDW BOUNDARY MISC KINETIC TOTAL TEMP POTENTIAL TOTALAVG TEMPAVG PRESSURE GPRESSURE VOLUME PRESSAVG GPRESSAVG
ENERGY: 0 3.4057 11.5523 21.5844 0.0000 -10607.6969 1417.3023 0.0000 0.0000 1725.5909 -7428.2614 295.1587 -9153.8524 -7428.2614 295.1587 -233.7063 -150.0109 29778.0422 -233.7063 -150.0109
ENERGY: 300000 2.0877 11.7903 22.7861 0.0000 -10538.1641 1416.3307 0.0000 0.0000 1715.3122 -7369.8571 293.4005 -9085.1692 -7388.5478 297.7150 -157.3586 -38.2768 30457.5832 -281.1026 -173.5509
ENERGY: 600000 2.6997 14.7771 19.0306 0.0000 -10641.9789 1442.6647 0.0000 0.0000 1805.3259 -7357.4810 308.7972 -9162.8068 -7397.4150 300.6599 -108.7576 -96.1362 30369.7313 -130.4524 -33.5472
ENERGY: 900000 6.0305 14.3896 20.9850 0.0000 -10673.2765 1435.9857 0.0000 0.0000 1770.9577 -7424.9280 302.9186 -9195.8857 -7386.6258 301.1026 -398.6155 -337.1897 30216.9957 -137.1929 -47.4968
ENERGY: 1200000 1.9170 12.3217 18.7533 0.0000 -10596.5535 1384.3742 0.0000 0.0000 1741.6355 -7437.5518 297.9031 -9179.1873 -7394.9330 300.6891 -462.9478 -371.9461 30107.4947 -76.7797 8.4465
ENERGY: 1500000 1.3143 13.0130 22.3099 0.0000 -10683.6967 1462.6362 0.0000 0.0000 1764.3119 -7420.1114 301.7818 -9184.4233 -7392.8047 300.0310 -147.3605 -53.4942 30402.0481 -115.7568 -35.1311
TCL: Running FEP window   4: Lambda1 0.15000000000000002 Lambda2 0.2    [dLambda 0.04999999999999999]
TCL: Setting parameter firsttimestep to 0
TCL: Setting parameter alchLambda to 0.15000000000000002
Info: NONBONDED TABLE R-SQUARED SPACING: 0.0625
Info: NONBONDED TABLE SIZE: 705 POINTS
TCL: Setting parameter alchLambda2 to 0.2
Info: NONBONDED TABLE R-SQUARED SPACING: 0.0625
Info: NONBONDED TABLE SIZE: 705 POINTS
TCL: Running for 1500000 steps
ETITLE: TS BOND ANGLE DIHED IMPRP ELECT VDW BOUNDARY MISC KINETIC TOTAL TEMP POTENTIAL TOTALAVG TEMPAVG PRESSURE GPRESSURE VOLUME PRESSAVG GPRESSAVG
ENERGY: 0 1.3143 13.0130 22.3099 0.0000 -10683.6971 1462.8263 0.0000 0.0000 1763.4480 -7420.7856 301.6341 -9184.2336 -7420.7856 301.6341 -134.1525 -53.4406 30402.0481 -134.1525 -53.4406
ENERGY: 300000 4.2277 9.7421 18.4772 0.0000 -10551.0299 1383.7166 0.0000 0.0000 1736.4996 -7398.3667 297.0246 -9134.8663 -7370.6774 302.5221 -262.3396 -193.4136 29882.4662 -165.9881 -94.6438
ENERGY: 600000 3.5829 16.3567 20.0972 0.0000 -10581.5320 1448.4351 0.0000 0.0000 1757.2956 -7335.7644 300.5817 -9093.0600 -7367.8556 300.8721 244.5541 271.8536 30100.1322 93.3503 150.5786
ENERGY: 900000 5.0061 10.7398 18.8839 0.0000 -10764.5128 1516.4761 0.0000 0.0000 1740.3809 -7473.0258 297.6885 -9213.4068 -7368.5402 300.6060 467.8602 540.4360 29837.0222 61.0931 124.5517
ENERGY: 1200000 2.9945 13.8121 19.3983 0.0000 -10490.7387 1371.4861 0.0000 0.0000 1778.4289 -7304.6187 304.1965 -9083.0476 -7364.9738 301.0339 -705.3797 -548.4682 30661.1727 6.3565 77.2936
ENERGY: 1500000 2.2170 13.0120 20.2263 0.0000 -10564.0115 1427.5454 0.0000 0.0000 1822.5863 -7278.4245 311.7495 -9101.0108 -7369.8288 300.5960 189.1605 253.0643 30298.4419 10.6699 77.7037
TCL: Running FEP window   5: Lambda1 0.2    Lambda2 0.25   [dLambda 0.04999999999999999]
TCL: Setting parameter firsttimestep to 0
TCL: Setting parameter alchLambda to 0.2
Info: NONBONDED TABLE R-SQUARED SPACING: 0.0625
Info: NONBONDED TABLE SIZE: 705 POINTS
TCL: Setting parameter alchLambda2 to 0.25
Info: NONBONDED TABLE R-SQUARED SPACING: 0.0625
Info: NONBONDED TABLE SIZE: 705 POINTS
TCL: Running for 1500000 steps
ETITLE: TS BOND ANGLE DIHED IMPRP ELECT VDW BOUNDARY MISC KINETIC TOTAL TEMP POTENTIAL TOTALAVG TEMPAVG PRESSURE GPRESSURE VOLUME PRESSAVG GPRESSAVG
ENERGY: 0 2.2170 13.0120 20.2263 0.0000 -10564.0130 1427.8401 0.0000 0.0000 1821.6982 -7279.0194 311.5976 -9100.7176 -7279.0194 311.5976 185.6748 259.7193 30298.4419 185.6748 259.7193
ENERGY: 300000 2.3439 17.1009 20.8406 0.0000 -10664.8975 1474.5617 0.0000 0.0000 1761.6997 -7388.3507 301.3350 -9150.0505 -7341.2241 309.1365 236.3046 284.0337 30166.2227 236.1885 284.1405
ENERGY: 600000 4.5946 13.4344 19.5979 0.0000 -10613.2676 1433.7453 0.0000 0.0000 1838.1818 -7303.7137 314.4171 -9141.8955 -7348.4948 306.9319 51.4910 52.3488 30201.6564 182.6455 240.9719
ENERGY: 900000 2.1561 12.5594 20.6314 0.0000 -10690.5739 1465.5022 0.0000 0.0000 1764.9084 -7424.8165 301.8839 -9189.7249 -7371.1245 304.0534 355.3394 408.4565 29710.9603 192.2703 245.2757
ENERGY: 1200000 4.2562 8.3532 19.3018 0.0000 -10504.4330 1374.6018 0.0000 0.0000 1665.9187 -7432.0012 284.9519 -9097.9199 -7376.3016 301.2274 -477.6533 -391.9238 30114.1786 88.6095 146.4926
ENERGY: 1500000 3.3716 12.0550 20.9015 0.0000 -10574.6737 1444.9021 0.0000 0.0000 1767.2075 -7326.2360 302.2771 -9093.4435 -7371.9264 301.1567 218.7829 260.7092 30087.3916 63.5738 118.5215
TCL: Running FEP window   6: Lambda1 0.25   Lambda2 0.3    [dLambda 0.04999999999999999]
TCL: Setting parameter firsttimestep to 0
TCL: Setting parameter alchLambda to 0.25
Info: NONBONDED TABLE R-SQUARED SPACING: 0.0625
Info: NONBONDED TABLE SIZE: 705 POINTS
TCL: Setting parameter alchLambda2 to 0.3
Info: NONBONDED TABLE R-SQUARED SPACING: 0.0625
Info: NONBONDED TABLE SIZE: 705 POINTS
TCL: Running for 1500000 steps
ETITLE: TS BOND ANGLE DIHED IMPRP ELECT VDW BOUNDARY MISC KINETIC TOTAL TEMP POTENTIAL TOTALAVG TEMPAVG PRESSURE GPRESSURE VOLUME PRESSAVG GPRESSAVG
ENERGY: 0 3.3716 12.0550 20.9015 0.0000 -10574.6730 1445.2672 0.0000 0.0000 1766.3211 -7326.7567 302.1255 -9093.0777 -7326.7567 302.1255 187.0515 266.5426 30087.3916 187.0515 266.5426
ENERGY: 300000 4.2963 16.2195 19.2026 0.0000 -10564.8814 1401.3833 0.0000 0.0000 1776.3856 -7347.3941 303.8470 -9123.7797 -7369.0760 298.0903 -427.0208 -414.2078 30543.6620 -357.7268 -284.8933
ENERGY: 600000 4.2723 10.3996 20.4731 0.0000 -10709.2200 1463.0747 0.0000 0.0000 1754.1750 -7456.8253 300.0479 -9211.0003 -7383.1670 298.1167 293.1192 384.9221 29429.1649 -114.2074 -33.2687
ENERGY: 900000 5.1857 10.9463 20.1771 0.0000 -10708.7487 1450.6787 0.0000 0.0000 1793.6456 -7428.1154 306.7993 -9221.7610 -7390.7618 299.4108 -84.5919 -103.6621 30058.0036 -190.4610 -121.1671
ENERGY: 1200000 6.4415 12.8750 19.1703 0.0000 -10520.4297 1365.6120 0.0000 0.0000 1753.2193 -7363.1116 299.8845 -9116.3309 -7385.1562 300.3655 -688.2937 -592.7914 30194.8586 -241.6645 -174.2893
ENERGY: 1500000 3.3163 14.3942 20.0275 0.0000 -10642.8589 1491.6237 0.0000 0.0000 1768.6416 -7344.8555 302.5224 -9113.4971 -7393.5769 300.8059 571.6289 655.4096 29945.7239 -152.9742 -82.8215
TCL: Running FEP window   7: Lambda1 0.3    Lambda2 0.35   [dLambda 0.04999999999999999]
TCL: Setting parameter firsttimestep to 0
TCL: Setting parameter alchLambda to 0.3
Info: NONBONDED TABLE R-SQUARED SPACING: 0.0625
Info: NONBONDED TABLE SIZE: 705 POINTS
TCL: Setting parameter alchLambda2 to 0.35
Info: NONBONDED TABLE R-SQUARED SPACING: 0.0625
Info: NONBONDED TABLE SIZE: 705 POINTS
TCL: Running for 1500000 steps
ETITLE: TS BOND ANGLE DIHED IMPRP ELECT VDW BOUNDARY MISC KINETIC TOTAL TEMP POTENTIAL TOTALAVG TEMPAVG PRESSURE GPRESSURE VOLUME PRESSAVG GPRESSAVG
ENERGY: 0 3.3163 14.3942 20.0275 0.0000 -10642.8591 1491.5489 0.0000 0.0000 1767.7789 -7345.7931 302.3749 -9113.5721 -7345.7931 302.3749 575.0940 661.4938 29945.7239 575.0940 661.4938
ENERGY: 300000 2.1077 11.9451 20.2806 0.0000 -10682.4738 1401.3026 0.0000 0.0000 1759.7233 -7487.1145 300.9970 -9246.8378 -7410.4608 304.0958 -243.1586 -218.9891 29857.4230 44.6561 98.1768
ENERGY: 600000 2.8488 15.5237 20.3920 0.0000 -10680.2372 1469.6340 0.0000 0.0000 1813.2853 -7358.5533 310.1586 -9171.8387 -7395.2593 305.0131 -68.5406 58.3435 30552.6177 40.2716 100.1282
ENERGY: 900000 2.8096 11.4341 20.1671 0.0000 -10579.8941 1420.9986 0.0000 0.0000 1728.5797 -7395.9050 295.6699 -9124.4847 -7394.6387 301.7553 256.0082 310.1839 29714.2432 -18.3853 43.3553
ENERGY: 1200000 4.9491 12.2001 20.3455 0.0000 -10708.1144 1515.8438 0.0000 0.0000 1761.9832 -7392.7927 301.3835 -9154.7759 -7393.6283 301.5821 991.6368 1031.4890 29674.3040 5.8358 61.9097
ENERGY: 1500000 7.8661 14.7761 19.4267 0.0000 -10462.5709 1370.2524 0.0000 0.0000 1756.8831 -7293.3666 300.5111 -9050.2497 -7393.3356 301.2005 -368.0036 -355.5470 30358.6844 3.0862 56.7448
TCL: Running FEP window   8: Lambda1 0.35   Lambda2 0.39999999999999997 [dLambda 0.04999999999999999]
TCL: Setting parameter firsttimestep to 0
TCL: Setting parameter alchLambda to 0.35
Info: NONBONDED TABLE R-SQUARED SPACING: 0.0625
Info: NONBONDED TABLE SIZE: 705 POINTS
TCL: Setting parameter alchLambda2 to 0.39999999999999997
Info: NONBONDED TABLE R-SQUARED SPACING: 0.0625
Info: NONBONDED TABLE SIZE: 705 POINTS
TCL: Running for 1500000 steps
ETITLE: TS BOND ANGLE DIHED IMPRP ELECT VDW BOUNDARY MISC KINETIC TOTAL TEMP POTENTIAL TOTALAVG TEMPAVG PRESSURE GPRESSURE VOLUME PRESSAVG GPRESSAVG
ENERGY: 0 7.8661 14.7761 19.4267 0.0000 -10462.5709 1370.2348 0.0000 0.0000 1756.0202 -7294.2470 300.3636 -9050.2672 -7294.2470 300.3636 -435.6896 -349.0292 30358.6844 -435.6896 -349.0292
ENERGY: 300000 2.7684 11.8933 18.9727 0.0000 -10626.5489 1415.3919 0.0000 0.0000 1757.0504 -7420.4723 300.5398 -9177.5227 -7404.3588 298.2669 -493.4227 -422.6393 30645.9632 -251.2177 -191.1549
ENERGY: 600000 2.6927 11.4710 19.8506 0.0000 -10703.0131 1503.7449 0.0000 0.0000 1761.1272 -7404.1267 301.2371 -9165.2539 -7402.8543 299.5371 504.3385 545.7433 29960.0072 -128.8463 -74.5211
ENERGY: 900000 1.6220 11.9519 18.4241 0.0000 -10726.0895 1457.0314 0.0000 0.0000 1761.2983 -7475.7618 301.2664 -9237.0601 -7403.3537 300.0291 -30.4466 39.9702 29757.8369 -138.9743 -85.8048
ENERGY: 1200000 1.9549 12.2935 20.9840 0.0000 -10715.5369 1527.9160 0.0000 0.0000 1781.0290 -7371.3595 304.6412 -9152.3885 -7392.2724 300.7208 869.9582 973.2399 29950.3484 -153.5022 -98.8608
ENERGY: 1500000 2.0788 7.1967 19.6704 0.0000 -10653.2689 1468.8952 0.0000 0.0000 1762.0403 -7393.3875 301.3933 -9155.4278 -7397.5933 300.2767 367.4896 416.1290 30177.6602 -30.5392 20.0878
TCL: Running FEP window   9: Lambda1 0.39999999999999997 Lambda2 0.44999999999999996 [dLambda 0.04999999999999999]
TCL: Setting parameter firsttimestep to 0
TCL: Setting parameter alchLambda to 0.39999999999999997
Info: NONBONDED TABLE R-SQUARED SPACING: 0.0625
Info: NONBONDED TABLE SIZE: 705 POINTS
TCL: Setting parameter alchLambda2 to 0.44999999999999996
Info: NONBONDED TABLE R-SQUARED SPACING: 0.0625
Info: NONBONDED TABLE SIZE: 705 POINTS
TCL: Running for 1500000 steps
ETITLE: TS BOND ANGLE DIHED IMPRP ELECT VDW BOUNDARY MISC KINETIC TOTAL TEMP POTENTIAL TOTALAVG TEMPAVG PRESSURE GPRESSURE VOLUME PRESSAVG GPRESSAVG
ENERGY: 0 2.0788 7.1967 19.6704 0.0000 -10653.2692 1468.4136 0.0000 0.0000 1761.1902 -7394.7195 301.2479 -9155.9097 -7394.7195 301.2479 340.5092 423.1975 30177.6602 340.5092 423.1975
ENERGY: 300000 1.1087 18.3563 20.8581 0.0000 -10705.0731 1489.9897 0.0000 0.0000 1749.0754 -7425.6849 299.1757 -9174.7603 -7370.5061 303.2424 504.0570 532.5293 30060.0459 82.6141 109.7310
ENERGY: 600000 1.0811 14.5177 19.2026 0.0000 -10643.0226 1393.4801 0.0000 0.0000 1746.3139 -7468.4272 298.7033 -9214.7411 -7391.8772 300.6704 -528.5840 -481.5164 30388.0499 -135.9805 -90.5926
ENERGY: 900000 2.5293 12.8203 20.6240 0.0000 -10644.5744 1431.6161 0.0000 0.0000 1730.5176 -7446.4671 296.0014 -9176.9847 -7397.0326 300.7641 82.2656 133.2244 29789.8606 -29.4532 23.0425
ENERGY: 1200000 4.0279 11.7504 18.9657 0.0000 -10537.4915 1401.5918 0.0000 0.0000 1759.4418 -7341.7138 300.9488 -9101.1556 -7389.0150 300.7773 -60.6179 9.8396 29944.4675 22.6018 76.7273
ENERGY: 1500000 5.5463 12.6474 22.8115 0.0000 -10625.9191 1434.3925 0.0000 0.0000 1773.4765 -7377.0448 303.3494 -9150.5213 -7386.0146 300.6110 -198.6695 -191.6411 30455.9582 -1.3052 49.9367
TCL: Running FEP window  10: Lambda1 0.44999999999999996 Lambda2 0.49999999999999994 [dLambda 0.04999999999999999]
TCL: Setting parameter firsttimestep to 0
TCL: Setting parameter alchLambda to 0.44999999999999996
Info: NONBONDED TABLE R-SQUARED SPACING: 0.0625
Info: NONBONDED TABLE SIZE: 705 POINTS
TCL: Setting parameter alchLambda2 to 0.49999999999999994
Info: NONBONDED TABLE R-SQUARED SPACING: 0.0625
Info: NONBONDED TABLE SIZE: 705 POINTS
TCL: Running for 1500000 steps
ETITLE: TS BOND ANGLE DIHED IMPRP ELECT VDW BOUNDARY MISC KINETIC TOTAL TEMP POTENTIAL TOTALAVG TEMPAVG PRESSURE GPRESSURE VOLUME PRESSAVG GPRESSAVG
ENERGY: 0 5.5463 12.6474 22.8115 0.0000 -10625.9193 1434.9208 0.0000 0.0000 1772.6320 -7377.3612 303.2050 -9149.9933 -7377.3612 303.2050 -255.4840 -182.4404 30455.9582 -255.4840 -182.4404
ENERGY: 300000 4.4551 11.8652 20.3275 0.0000 -10551.1758 1394.2926 0.0000 0.0000 1729.8097 -7390.4256 295.8803 -9120.2353 -7370.3007 298.6230 -221.2063 -165.8018 30091.9531 84.3729 149.3204
ENERGY: 600000 3.7860 14.3593 19.3199 0.0000 -10575.2873 1381.3294 0.0000 0.0000 1772.9248 -7383.5678 303.2550 -9156.4926 -7372.7662 300.3786 -441.1154 -393.9737 29902.1805 16.4274 74.3994
ENERGY: 900000 2.6220 11.4229 19.1466 0.0000 -10594.8827 1354.4791 0.0000 0.0000 1721.6070 -7485.6050 294.4772 -9207.2120 -7396.9434 299.3494 -738.5887 -649.0772 29927.5251 -102.0375 -36.4526
ENERGY: 1200000 2.5220 9.9738 19.6712 0.0000 -10531.5194 1395.0227 0.0000 0.0000 1729.9075 -7374.4223 295.8970 -9104.3297 -7390.3834 299.4452 -87.1400 13.0733 30106.8319 -159.4469 -97.5224
ENERGY: 1500000 6.1021 8.7625 20.3601 0.0000 -10552.6669 1365.4401 0.0000 0.0000 1793.5929 -7358.4092 306.7903 -9152.0021 -7378.9395 300.5181 -292.4653 -218.5838 30061.0365 -97.4589 -34.7998
TCL: Running FEP window  11: Lambda1 0.49999999999999994 Lambda2 0.5499999999999999 [dLambda 0.04999999999999999]
TCL: Setting parameter firsttimestep to 0
TCL: Setting parameter alchLambda to 0.49999999999999994
Info: NONBONDED TABLE R-SQUARED SPACING: 0.0625
Info: NONBONDED TABLE SIZE: 705 POINTS
TCL: Setting parameter alchLambda2 to 0.5499999999999999
Info: NONBONDED TABLE R-SQUARED SPACING: 0.0625
Info: NONBONDED TABLE SIZE: 705 POINTS
TCL: Running for 1500000 steps
ETITLE: TS BOND ANGLE DIHED IMPRP ELECT VDW BOUNDARY MISC KINETIC TOTAL TEMP POTENTIAL TOTALAVG TEMPAVG PRESSURE GPRESSURE VOLUME PRESSAVG GPRESSAVG
ENERGY: 0 6.1021 8.7625 20.3601 0.0000 -10552.6664 1366.5675 0.0000 0.0000 1792.7347 -7358.1395 306.6435 -9150.8742 -7358.1395 306.6435 -281.5260 -201.6982 30061.0365 -281.5260 -201.6982
ENERGY: 300000 0.4542 15.5916 21.5493 0.0000 -10828.4190 1527.3553 0.0000 0.0000 1742.3968 -7521.0717 298.0333 -9263.4685 -7396.8281 300.9536 608.0548 654.2033 29726.1351 170.6436 237.5713
ENERGY: 600000 2.1038 12.4299 20.6363 0.0000 -10501.6646 1299.0186 0.0000 0.0000 1735.0522 -7432.4238 296.7770 -9167.4760 -7395.4513 299.5678 -1136.3971 -1070.8073 30391.2457 63.3601 127.9128
ENERGY: 900000 3.3458 12.9311 21.2716 0.0000 -10631.3306 1413.0734 0.0000 0.0000 1748.6070 -7432.1016 299.0955 -9180.7086 -7414.4943 297.2308 -124.9597 -40.9453 30004.1368 6.3282 70.9349
ENERGY: 1200000 2.3160 15.0673 22.3661 0.0000 -10484.0778 1355.1754 0.0000 0.0000 1789.3673 -7299.7857 306.0675 -9089.1530 -7408.0827 297.9681 -455.1154 -386.9807 30367.5958 -56.7561 7.2750
ENERGY: 1500000 1.8191 9.9830 19.9112 0.0000 -10616.4803 1508.7716 0.0000 0.0000 1737.5278 -7338.4677 297.2005 -9075.9955 -7404.2515 299.0178 997.0846 1073.3393 30013.7732 0.8570 68.5821
TCL: Running FEP window  12: Lambda1 0.5499999999999999 Lambda2 0.6    [dLambda 0.050000000000000044]
TCL: Setting parameter firsttimestep to 0
TCL: Setting parameter alchLambda to 0.5499999999999999
Info: NONBONDED TABLE R-SQUARED SPACING: 0.0625
Info: NONBONDED TABLE SIZE: 705 POINTS
TCL: Setting parameter alchLambda2 to 0.6
Info: NONBONDED TABLE R-SQUARED SPACING: 0.0625
Info: NONBONDED TABLE SIZE: 705 POINTS
TCL: Running for 1500000 steps
ETITLE: TS BOND ANGLE DIHED IMPRP ELECT VDW BOUNDARY MISC KINETIC TOTAL TEMP POTENTIAL TOTALAVG TEMPAVG PRESSURE GPRESSURE VOLUME PRESSAVG GPRESSAVG
ENERGY: 0 1.8191 9.9830 19.9112 0.0000 -10616.8728 1509.4182 0.0000 0.0000 1736.6826 -7339.0588 297.0559 -9075.7413 -7339.0588 297.0559 1004.8481 1090.8107 30013.7732 1004.8481 1090.8107
ENERGY: 300000 4.4461 10.5244 23.2664 0.0000 -10671.5827 1471.6986 0.0000 0.0000 1766.8605 -7394.7866 302.2178 -9161.6472 -7404.7881 300.5973 -22.4622 91.8017 30514.7254 162.8431 251.3325
ENERGY: 600000 1.5856 11.3275 18.2670 0.0000 -10745.5103 1486.1226 0.0000 0.0000 1756.9914 -7471.2162 300.5297 -9228.2076 -7395.6489 301.3315 301.0975 397.5896 29916.1976 201.8458 289.3314
ENERGY: 900000 2.9594 8.2659 21.2590 0.0000 -10657.4439 1444.1843 0.0000 0.0000 1804.9609 -7375.8144 308.7348 -9180.7753 -7396.5814 303.3906 40.4906 160.0873 30161.7100 306.5946 391.6490
ENERGY: 1200000 1.7968 14.8283 19.5524 0.0000 -10615.4253 1442.0821 0.0000 0.0000 1732.7317 -7404.4340 296.3801 -9137.1657 -7398.4928 301.9520 191.1785 248.4595 30204.2307 205.8420 289.2755
ENERGY: 1500000 3.3057 12.4428 20.5863 0.0000 -10877.4473 1601.4460 0.0000 0.0000 1793.2564 -7446.4101 306.7327 -9239.6665 -7388.3887 302.6885 1447.3054 1540.1775 29447.6179 257.9461 340.5046
TCL: Running FEP window  13: Lambda1 0.6    Lambda2 0.65   [dLambda 0.050000000000000044]
TCL: Setting parameter firsttimestep to 0
TCL: Setting parameter alchLambda to 0.6
Info: NONBONDED TABLE R-SQUARED SPACING: 0.0625
Info: NONBONDED TABLE SIZE: 705 POINTS
TCL: Setting parameter alchLambda2 to 0.65
Info: NONBONDED TABLE R-SQUARED SPACING: 0.0625
Info: NONBONDED TABLE SIZE: 705 POINTS
TCL: Running for 1500000 steps
ETITLE: TS BOND ANGLE DIHED IMPRP ELECT VDW BOUNDARY MISC KINETIC TOTAL TEMP POTENTIAL TOTALAVG TEMPAVG PRESSURE GPRESSURE VOLUME PRESSAVG GPRESSAVG
ENERGY: 0 3.3057 12.4428 20.5863 0.0000 -10877.9183 1601.9790 0.0000 0.0000 1792.4212 -7447.1832 306.5899 -9239.6044 -7447.1832 306.5899 1495.2198 1559.0847 29447.6179 1495.2198 1559.0847
ENERGY: 300000 1.9463 14.2930 21.0704 0.0000 -10617.8764 1433.7141 0.0000 0.0000 1753.5285 -7393.3242 299.9373 -9146.8527 -7436.7056 302.8080 308.6556 390.1575 29888.5095 483.0577 537.4764
ENERGY: 600000 3.1125 18.9841 19.4444 0.0000 -10504.9867 1289.9712 0.0000 0.0000 1748.2719 -7425.2026 299.0382 -9173.4745 -7415.0278 301.3140 -1009.2002 -918.2861 29949.1447 182.3402 253.1313
ENERGY: 900000 4.6620 14.7398 19.7217 0.0000 -10645.2868 1491.0527 0.0000 0.0000 1751.5164 -7363.5942 299.5932 -9115.1106 -7412.6037 300.0715 302.0232 400.0305 30539.6391 162.8357 234.1825
ENERGY: 1200000 7.3939 18.3606 19.6120 0.0000 -10684.2678 1466.1638 0.0000 0.0000 1722.3993 -7450.3381 294.6128 -9172.7374 -7412.7467 299.0776 94.4974 213.0874 30177.7167 123.2670 194.7841
ENERGY: 1500000 3.4693 12.5875 18.5058 0.0000 -10577.2383 1421.4162 0.0000 0.0000 1760.8385 -7360.4210 301.1877 -9121.2595 -7407.4816 299.2646 28.4852 85.6665 30143.1066 59.5290 129.4654
TCL: Running FEP window  14: Lambda1 0.65   Lambda2 0.7000000000000001 [dLambda 0.050000000000000044]
TCL: Setting parameter firsttimestep to 0
TCL: Setting parameter alchLambda to 0.65
Info: NONBONDED TABLE R-SQUARED SPACING: 0.0625
Info: NONBONDED TABLE SIZE: 705 POINTS
TCL: Setting parameter alchLambda2 to 0.7000000000000001
Info: NONBONDED TABLE R-SQUARED SPACING: 0.0625
Info: NONBONDED TABLE SIZE: 705 POINTS
TCL: Running for 1500000 steps
ETITLE: TS BOND ANGLE DIHED IMPRP ELECT VDW BOUNDARY MISC KINETIC TOTAL TEMP POTENTIAL TOTALAVG TEMPAVG PRESSURE GPRESSURE VOLUME PRESSAVG GPRESSAVG
ENERGY: 0 3.4693 12.5875 18.5058 0.0000 -10577.5711 1421.8798 0.0000 0.0000 1759.9560 -7361.1727 301.0368 -9121.1287 -7361.1727 301.0368 4.1261 102.7791 30143.1066 4.1261 102.7791
ENERGY: 300000 5.1381 8.0845 19.4723 0.0000 -10516.4398 1373.0497 0.0000 0.0000 1696.0671 -7414.6281 290.1087 -9110.6952 -7418.8074 296.2243 -606.0818 -551.6990 30347.4863 -255.4478 -187.7398
ENERGY: 600000 3.7658 10.9006 20.3233 0.0000 -10552.4423 1378.5778 0.0000 0.0000 1729.7879 -7409.0869 295.8766 -9138.8748 -7408.5735 296.8124 -578.8353 -531.6722 30450.9982 -394.1330 -312.0770
ENERGY: 900000 2.1244 10.5471 20.8754 0.0000 -10718.4758 1459.1130 0.0000 0.0000 1866.5242 -7359.2918 319.2650 -9225.8159 -7400.5033 300.0987 96.2339 84.2446 30239.5898 -330.4317 -257.2613
ENERGY: 1200000 6.1124 10.6550 18.8369 0.0000 -10579.0114 1316.3650 0.0000 0.0000 1760.5019 -7466.5402 301.1301 -9227.0421 -7399.6416 299.8983 -965.8507 -877.0758 29626.3578 -299.7552 -219.1230
ENERGY: 1500000 2.0446 10.5058 18.9969 0.0000 -10646.3288 1455.9185 0.0000 0.0000 1697.2949 -7461.5681 290.3187 -9158.8630 -7403.3323 299.2542 221.4751 254.2147 29744.9539 -211.4485 -134.4107
TCL: Running FEP window  15: Lambda1 0.7000000000000001 Lambda2 0.7500000000000001 [dLambda 0.050000000000000044]
TCL: Setting parameter firsttimestep to 0
TCL: Setting parameter alchLambda to 0.7000000000000001
Info: NONBONDED TABLE R-SQUARED SPACING: 0.0625
Info: NONBONDED TABLE SIZE: 705 POINTS
TCL: Setting parameter alchLambda2 to 0.7500000000000001
Info: NONBONDED TABLE R-SQUARED SPACING: 0.0625
Info: NONBONDED TABLE SIZE: 705 POINTS
TCL: Running for 1500000 steps
ETITLE: TS BOND ANGLE DIHED IMPRP ELECT VDW BOUNDARY MISC KINETIC TOTAL TEMP POTENTIAL TOTALAVG TEMPAVG PRESSURE GPRESSURE VOLUME PRESSAVG GPRESSAVG
ENERGY: 0 2.0446 10.5058 18.9969 0.0000 -10646.8549 1455.5272 0.0000 0.0000 1696.4500 -7463.3304 290.1742 -9159.7804 -7463.3304 290.1742 198.3535 261.2529 29744.9539 198.3535 261.2529
ENERGY: 300000 2.8001 12.0704 20.7043 0.0000 -10551.0351 1407.0692 0.0000 0.0000 1726.4009 -7381.9903 295.2972 -9108.3911 -7402.1616 298.3846 -166.2696 -146.4205 30531.3171 -267.5299 -221.3646
ENERGY: 600000 1.6505 14.9681 20.9161 0.0000 -10727.0026 1481.4454 0.0000 0.0000 1695.2549 -7512.7677 289.9698 -9208.0225 -7418.3431 298.1657 166.5374 265.3293 30233.2065 -30.0087 23.9054
ENERGY: 900000 1.9477 13.3550 19.5034 0.0000 -10740.5933 1449.2503 0.0000 0.0000 1730.9591 -7525.5778 296.0769 -9256.5369 -7419.8012 298.1471 44.2894 125.0578 30111.5409 22.6355 65.2589
ENERGY: 1200000 3.9593 14.0096 20.1632 0.0000 -10643.5522 1469.7396 0.0000 0.0000 1737.2721 -7398.4084 297.1567 -9135.6805 -7408.8846 298.5684 299.5985 356.3952 30542.3902 -2.0112 41.7210
ENERGY: 1500000 2.3299 11.2476 18.8773 0.0000 -10536.9721 1461.4399 0.0000 0.0000 1723.7606 -7319.3167 294.8456 -9043.0774 -7403.4677 298.4642 950.2469 938.2288 29845.9418 46.5259 89.5411
TCL: Running FEP window  16: Lambda1 0.7500000000000001 Lambda2 0.8000000000000002 [dLambda 0.050000000000000044]
TCL: Setting parameter firsttimestep to 0
TCL: Setting parameter alchLambda to 0.7500000000000001
Info: NONBONDED TABLE R-SQUARED SPACING: 0.0625
Info: NONBONDED TABLE SIZE: 705 POINTS
TCL: Setting parameter alchLambda2 to 0.8000000000000002
Info: NONBONDED TABLE R-SQUARED SPACING: 0.0625
Info: NONBONDED TABLE SIZE: 705 POINTS
TCL: Running for 1500000 steps
ETITLE: TS BOND ANGLE DIHED IMPRP ELECT VDW BOUNDARY MISC KINETIC TOTAL TEMP POTENTIAL TOTALAVG TEMPAVG PRESSURE GPRESSURE VOLUME PRESSAVG GPRESSAVG
ENERGY: 0 2.3299 11.2476 18.8773 0.0000 -10537.9757 1463.2953 0.0000 0.0000 1722.8931 -7319.3326 294.6972 -9042.2257 -7319.3326 294.6972 906.6065 975.0781 29845.9418 906.6065 975.0781
ENERGY: 300000 4.4699 12.5800 21.3042 0.0000 -10802.0307 1523.4490 0.0000 0.0000 1775.0782 -7465.1494 303.6234 -9240.2276 -7417.6142 295.6729 856.5539 874.3074 29720.6541 383.5145 444.9164
ENERGY: 600000 2.0505 10.7666 20.9692 0.0000 -10647.8189 1452.6067 0.0000 0.0000 1785.8089 -7375.6170 305.4588 -9161.4259 -7403.3053 299.2127 54.9690 115.3511 30504.3714 281.0310 342.5254
ENERGY: 900000 4.0143 15.2325 19.6448 0.0000 -10762.5379 1496.0559 0.0000 0.0000 1736.2857 -7491.3047 296.9880 -9227.5904 -7411.5717 299.3338 333.9659 433.0418 29786.1252 299.0818 358.3445
ENERGY: 1200000 1.7135 15.5272 21.0410 0.0000 -10512.5972 1354.2547 0.0000 0.0000 1777.3262 -7342.7347 304.0079 -9120.0609 -7399.8431 300.3523 -279.8998 -241.4263 29927.1199 191.5039 257.1076
ENERGY: 1500000 2.6394 14.6224 19.2721 0.0000 -10708.3489 1509.6933 0.0000 0.0000 1761.1696 -7400.9521 301.2444 -9162.1217 -7395.2408 299.9461 537.9134 633.9087 30095.6811 138.3883 204.3460
TCL: Running FEP window  17: Lambda1 0.8000000000000002 Lambda2 0.8500000000000002 [dLambda 0.050000000000000044]
TCL: Setting parameter firsttimestep to 0
TCL: Setting parameter alchLambda to 0.8000000000000002
Info: NONBONDED TABLE R-SQUARED SPACING: 0.0625
Info: NONBONDED TABLE SIZE: 705 POINTS
TCL: Setting parameter alchLambda2 to 0.8500000000000002
Info: NONBONDED TABLE R-SQUARED SPACING: 0.0625
Info: NONBONDED TABLE SIZE: 705 POINTS
TCL: Running for 1500000 steps
ETITLE: TS BOND ANGLE DIHED IMPRP ELECT VDW BOUNDARY MISC KINETIC TOTAL TEMP POTENTIAL TOTALAVG TEMPAVG PRESSURE GPRESSURE VOLUME PRESSAVG GPRESSAVG
ENERGY: 0 2.6394 14.6224 19.2721 0.0000 -10709.6591 1510.0672 0.0000 0.0000 1760.3136 -7402.7443 301.0979 -9163.0579 -7402.7443 301.0979 561.1666 646.7113 30095.6811 561.1666 646.7113
ENERGY: 300000 4.1894 13.6204 19.8667 0.0000 -10681.9634 1447.8323 0.0000 0.0000 1794.2539 -7402.2007 306.9033 -9196.4546 -7386.8854 300.6433 122.2737 182.2908 30013.8809 -32.1320 52.4871
ENERGY: 600000 4.5152 15.1259 19.7946 0.0000 -10691.7441 1471.8371 0.0000 0.0000 1744.4307 -7436.0406 298.3812 -9180.4713 -7403.1337 300.8095 396.2852 453.0528 29822.4893 7.4281 72.2250
ENERGY: 900000 3.9720 13.8182 19.0001 0.0000 -10657.4998 1442.9276 0.0000 0.0000 1777.3649 -7400.4169 304.0145 -9177.7818 -7404.0847 301.5172 154.5790 183.4230 30293.2223 134.8568 199.0101
ENERGY: 1200000 2.2076 9.2488 21.1549 0.0000 -10705.6347 1474.9891 0.0000 0.0000 1783.2433 -7414.7910 305.0200 -9198.0342 -7398.4586 301.8854 276.2109 341.2362 30180.8937 116.6614 175.6889
ENERGY: 1500000 2.4586 9.4109 18.5845 0.0000 -10624.4304 1422.9174 0.0000 0.0000 1748.0119 -7423.0471 298.9937 -9171.0590 -7399.0685 301.6509 -12.4069 39.0282 30295.5950 80.9094 141.5832
TCL: Running FEP window  18: Lambda1 0.8500000000000002 Lambda2 0.9000000000000002 [dLambda 0.050000000000000044]
TCL: Setting parameter firsttimestep to 0
TCL: Setting parameter alchLambda to 0.8500000000000002
Info: NONBONDED TABLE R-SQUARED SPACING: 0.0625
Info: NONBONDED TABLE SIZE: 705 POINTS
TCL: Setting parameter alchLambda2 to 0.9000000000000002
Info: NONBONDED TABLE R-SQUARED SPACING: 0.0625
Info: NONBONDED TABLE SIZE: 705 POINTS
TCL: Running for 1500000 steps
ETITLE: TS BOND ANGLE DIHED IMPRP ELECT VDW BOUNDARY MISC KINETIC TOTAL TEMP POTENTIAL TOTALAVG TEMPAVG PRESSURE GPRESSURE VOLUME PRESSAVG GPRESSAVG
ENERGY: 0 2.4587 9.4109 18.5845 0.0000 -10625.6714 1423.2001 0.0000 0.0000 1747.1499 -7424.8674 298.8463 -9172.0173 -7424.8674 298.8463 -37.9103 51.3105 30295.5950 -37.9103 51.3105
ENERGY: 300000 5.6909 10.8156 19.7007 0.0000 -10670.0917 1461.8092 0.0000 0.0000 1739.7749 -7432.3004 297.5848 -9172.0753 -7452.6586 295.7463 94.4429 177.5765 30385.7345 117.1183 190.9725
ENERGY: 600000 3.1611 9.5867 20.3528 0.0000 -10561.1350 1414.8481 0.0000 0.0000 1738.6377 -7374.5484 297.3903 -9113.1862 -7405.7729 299.0235 37.4935 184.6523 30158.1359 145.6354 218.4123
ENERGY: 900000 3.3810 13.7717 18.3360 0.0000 -10712.0693 1487.3947 0.0000 0.0000 1759.1740 -7430.0119 300.9030 -9189.1860 -7409.3697 299.5312 489.6442 570.2087 29965.7187 40.2780 104.6093
ENERGY: 1200000 3.4023 18.4456 18.8001 0.0000 -10742.0487 1495.2543 0.0000 0.0000 1801.0506 -7405.0958 308.0659 -9206.1464 -7405.9564 301.0391 335.7869 436.9874 30172.3622 66.8502 131.9277
ENERGY: 1500000 2.9132 12.5779 19.5047 0.0000 -10820.9711 1530.5478 0.0000 0.0000 1748.6532 -7506.7742 299.1034 -9255.4274 -7403.9875 301.5132 406.3013 500.9591 30396.0541 86.1790 151.7844
TCL: Running FEP window  19: Lambda1 0.9000000000000002 Lambda2 0.9500000000000003 [dLambda 0.050000000000000044]
TCL: Setting parameter firsttimestep to 0
TCL: Setting parameter alchLambda to 0.9000000000000002
Info: NONBONDED TABLE R-SQUARED SPACING: 0.0625
Info: NONBONDED TABLE SIZE: 705 POINTS
TCL: Setting parameter alchLambda2 to 0.9500000000000003
Info: NONBONDED TABLE R-SQUARED SPACING: 0.0625
Info: NONBONDED TABLE SIZE: 705 POINTS
TCL: Running for 1500000 steps
ETITLE: TS BOND ANGLE DIHED IMPRP ELECT VDW BOUNDARY MISC KINETIC TOTAL TEMP POTENTIAL TOTALAVG TEMPAVG PRESSURE GPRESSURE VOLUME PRESSAVG GPRESSAVG
ENERGY: 0 2.9132 12.5779 19.5047 0.0000 -10822.8721 1531.0967 0.0000 0.0000 1747.7525 -7509.0271 298.9494 -9256.7795 -7509.0271 298.9494 433.4020 517.0663 30396.0541 433.4020 517.0663
ENERGY: 300000 1.9089 17.0832 20.1044 0.0000 -10532.3253 1295.9279 0.0000 0.0000 1727.8345 -7469.4665 295.5424 -9197.3010 -7435.1746 298.5206 -1039.2844 -1017.4890 30371.8085 -290.9122 -230.4929
ENERGY: 600000 3.3592 9.2619 21.9340 0.0000 -10474.4915 1369.0403 0.0000 0.0000 1716.6745 -7354.2215 293.6336 -9070.8961 -7424.5774 298.3032 -567.2664 -475.3994 30831.5706 -245.0359 -192.6109
ENERGY: 900000 3.7564 9.0608 18.7983 0.0000 -10622.5181 1403.7507 0.0000 0.0000 1791.6563 -7395.4956 306.4590 -9187.1519 -7416.9526 299.5836 -328.5324 -276.8057 30245.0697 -202.5929 -147.1820
ENERGY: 1200000 1.4755 19.3011 18.2491 0.0000 -10658.2947 1472.2267 0.0000 0.0000 1790.3862 -7356.6561 306.2418 -9147.0423 -7404.2666 301.0224 412.6529 490.3698 30171.6449 -136.8233 -78.8889
ENERGY: 1500000 3.0982 13.8271 19.1470 0.0000 -10597.6493 1380.9587 0.0000 0.0000 1683.3241 -7497.2941 287.9290 -9180.6183 -7409.2679 300.2719 -599.4378 -529.6823 30548.0828 -107.3388 -52.4810
TCL: Running FEP window  20: Lambda1 0.9500000000000003 Lambda2 1.0    [dLambda 0.04999999999999971]
TCL: Setting parameter firsttimestep to 0
TCL: Setting parameter alchLambda to 0.9500000000000003
Info: NONBONDED TABLE R-SQUARED SPACING: 0.0625
Info: NONBONDED TABLE SIZE: 705 POINTS
TCL: Setting parameter alchLambda2 to 1.0
Info: NONBONDED TABLE R-SQUARED SPACING: 0.0625
Info: NONBONDED TABLE SIZE: 705 POINTS
TCL: Running for 1500000 steps
ETITLE: TS BOND ANGLE DIHED IMPRP ELECT VDW BOUNDARY MISC KINETIC TOTAL TEMP POTENTIAL TOTALAVG TEMPAVG PRESSURE GPRESSURE VOLUME PRESSAVG GPRESSAVG
ENERGY: 0 3.0983 13.8271 19.1470 0.0000 -10599.3264 1381.3051 0.0000 0.0000 1682.5013 -7499.4476 287.7883 -9181.9489 -7499.4476 287.7883 -595.1950 -512.4676 30548.0828 -595.1950 -512.4676
ENERGY: 300000 3.5808 8.7638 20.2906 0.0000 -10847.2764 1601.6862 0.0000 0.0000 1768.7153 -7444.2396 302.5350 -9212.9550 -7426.3141 299.2006 1229.8316 1285.0186 30062.6304 317.5607 394.6926
ENERGY: 600000 1.7796 17.4074 19.0083 0.0000 -10656.7850 1446.1652 0.0000 0.0000 1703.8382 -7468.5864 291.4379 -9172.4245 -7435.8945 299.3280 427.0377 491.7663 29881.1172 114.9964 182.3809
ENERGY: 900000 2.3638 14.1987 19.5757 0.0000 -10575.3756 1360.5404 0.0000 0.0000 1782.1963 -7396.5007 304.8409 -9178.6970 -7430.1334 300.2193 -597.0660 -526.0368 30361.8308 2.5907 60.1931
ENERGY: 1200000 2.1886 10.5272 18.8408 0.0000 -10570.3221 1401.5695 0.0000 0.0000 1726.4556 -7410.7405 295.3066 -9137.1960 -7436.5198 299.6462 -265.3856 -194.1425 30337.0618 -26.4965 34.5726
ENERGY: 1500000 4.8728 10.2879 21.3103 0.0000 -10720.1075 1498.6013 0.0000 0.0000 1734.9989 -7450.0364 296.7679 -9185.0353 -7431.7660 299.5036 310.7400 349.6238 30272.7076 -12.8450 43.9150
TCL: Exiting due to exit command.
