Info: SIMULATION PARAMETERS:
Info: TIMESTEP               2
Info: NUMBER OF STEPS        0
Info: STEPS PER CYCLE        10
Info: PERIODIC CELL BASIS 1  31.8723 0 0
Info: PERIODIC CELL BASIS 2  0 30.4799 0
Info: PERIODIC CELL BASIS 3  0 0 31.4989
Info: PERIODIC CELL CENTER   0 0 0
Info: WRAPPING WATERS AROUND PERIODIC BOUNDARIES ON OUTPUT.
Info: WRAPPING ALL CLUSTERS AROUND PERIODIC BOUNDARIES ON OUTPUT.
Info: FIRST LDB TIMESTEP     50
Info: LAST LDB TIMESTEP     -1
Info: HOM BACKGROUND SCALING 1
Info: PME BACKGROUND SCALING 1
Info: MIN ATOMS PER PATCH    40
Info: EMPTY PATCH LOAD       40 ATOMS
Info: VELOCITY FILE          mobley_8124669_equil.vel
Info: CENTER OF MASS MOVING INITIALLY? NO
Info: DIELECTRIC             1
Info: EXCLUDE                SCALED ONE-FOUR
Info: 1-4 ELECTROSTATICS SCALED BY 0.833333
Info: MODIFIED 1-4 VDW PARAMETERS WILL BE USED
Info: DCD FILENAME           mobley_8124669_prod.dcd
Info: DCD FREQUENCY          100000
Info: DCD FIRST STEP         100000
Info: DCD FILE WILL CONTAIN UNIT CELL DATA
Info: XST FILENAME           mobley_8124669_prod.xst
Info: XST FREQUENCY          100000
Info: NO VELOCITY DCD OUTPUT
Info: NO FORCE DCD OUTPUT
Info: OUTPUT FILENAME        mobley_8124669_prod
Info: BINARY OUTPUT FILES WILL BE USED
Info: RESTART FILENAME       mobley_8124669_prod.restart
Info: RESTART FREQUENCY      100000
Info: BINARY RESTART FILES WILL BE USED
Info: CUTOFF                 9
Info: PAIRLIST DISTANCE      11
Info: PAIRLIST SHRINK RATE   0.01
Info: PAIRLIST GROW RATE     0.01
Info: PAIRLIST TRIGGER       0.3
Info: PAIRLISTS PER CYCLE    2
Info: PAIRLISTS ENABLED
Info: MARGIN                 2
Info: HYDROGEN GROUP CUTOFF  2.5
Info: PATCH DIMENSION        15.5
Info: ENERGY OUTPUT STEPS    100000
Info: ENERGY EVALUATION STEPS    100000
Info: OUTPUT ENERGY PRECISION 4
Info: CROSSTERM ENERGY INCLUDED IN DIHEDRAL
Info: TIMING OUTPUT STEPS    1000000
Info: PRESSURE OUTPUT STEPS  100000
Info: ALCHEMICAL FEP ON
Info: FEP CURRENT LAMBDA VALUE     0
Info: FEP COMPARISON LAMBDA VALUE  0.05
Info: FEP INTRA-ALCHEMICAL NON-BONDED INTERACTIONS WILL BE RETAINED
Info: FEP INTRA-ALCHEMICAL BONDED INTERACTIONS WILL BE RETAINED
Info: FEP VDW SHIFTING COEFFICIENT 5
Info: FEP ELEC. ACTIVE FOR ANNIHILATED PARTICLES BETWEEN LAMBDA = 0 AND LAMBDA = 0.5
Info: FEP ELEC. ACTIVE FOR EXNIHILATED PARTICLES BETWEEN LAMBDA = 0.5 AND LAMBDA = 1
Info: FEP VDW ACTIVE FOR ANNIHILATED PARTICLES BETWEEN LAMBDA = 0 AND LAMBDA = 1
Info: FEP VDW ACTIVE FOR EXNIHILATED PARTICLES BETWEEN LAMBDA = 0 AND LAMBDA = 1
Info: FEP BOND ACTIVE FOR ANNIHILATED PARTICLES BETWEEN LAMBDA = 1 AND LAMBDA = 1
Info: FEP BOND ACTIVE FOR EXNIHILATED PARTICLES BETWEEN LAMBDA = 0 AND LAMBDA = 0
Info: LANGEVIN DYNAMICS ACTIVE
Info: LANGEVIN TEMPERATURE   300
Info: LANGEVIN USING BBK INTEGRATOR
Info: LANGEVIN DAMPING COEFFICIENT IS 1 INVERSE PS
Info: LANGEVIN DYNAMICS APPLIED TO HYDROGENS
Info: LANGEVIN PISTON PRESSURE CONTROL ACTIVE
Info:        TARGET PRESSURE IS 1.01325 BAR
Info:     OSCILLATION PERIOD IS 50 FS
Info:             DECAY TIME IS 25 FS
Info:     PISTON TEMPERATURE IS 300 K
Info:       PRESSURE CONTROL IS GROUP-BASED
Info:    INITIAL STRAIN RATE IS 8.06551e-05 8.06551e-05 8.06551e-05
Info:       CELL FLUCTUATION IS ISOTROPIC
Info: PARTICLE MESH EWALD (PME) ACTIVE
Info: PME TOLERANCE               1e-06
Info: PME EWALD COEFFICIENT       0.348832
Info: PME INTERPOLATION ORDER     4
Info: PME GRID DIMENSIONS         32 32 32
Info: PME MAXIMUM GRID SPACING    1
Info: PME CALCULATION WILL BE PERFORMED ON GPU
Info: FULL ELECTROSTATIC EVALUATION FREQUENCY      2
Info: USING VERLET I (r-RESPA) MTS SCHEME.
Info: C1 SPLITTING OF LONG RANGE ELECTROSTATICS
Info: PLACING ATOMS IN PATCHES BY HYDROGEN GROUPS
Info: RIGID BONDS TO HYDROGEN : ALL
Info:         ERROR TOLERANCE : 1e-08
Info:          MAX ITERATIONS : 100
Info: RIGID WATER USING SETTLE ALGORITHM
Info: RANDOM NUMBER SEED     1744079510
Info: USE HYDROGEN BONDS?    NO
Info: Using AMBER format force field!
Info: AMBER PARM FILE        mobley_8124669.prmtop
Info: COORDINATE PDB         mobley_8124669.pdb
Info: Exclusions will be read from PARM file!
Info: SCNB (VDW SCALING)     2
Info: USING ARITHMETIC MEAN TO COMBINE L-J SIGMA PARAMETERS
Info: BINARY COORDINATES     mobley_8124669_equil.coor
Info: SUMMARY OF PARAMETERS:
Info: 16 BONDS
Info: 24 ANGLES
Info:   24 HARMONIC
Info:   0 COSINE-BASED
Info: 13 DIHEDRAL
Info: 0 IMPROPER
Info: 0 CROSSTERM
Info: 0 VDW
Info: 78 VDW_PAIRS
Info: 0 NBTHOLE_PAIRS
Info: To read alchdata from file: mobley_8124669.pdb
Info: To read alchflag data from column: 5
Info: STRUCTURE SUMMARY:
Info: 2972 ATOMS
Info: 2972 BONDS
Info: 67 ANGLES
Info: 93 DIHEDRALS
Info: 0 IMPROPERS
Info: 0 CROSSTERMS
Info: 3116 EXCLUSIONS
Info: 2954 RIGID BONDS
Info: ALCH: 0 ATOMS TO DISAPPEAR IN FINAL STATE
Info: ALCH: 38 ATOMS TO APPEAR IN FINAL STATE
Info: 5962 DEGREES OF FREEDOM
Info: 996 HYDROGEN GROUPS
Info: 4 ATOMS IN LARGEST HYDROGEN GROUP
Info: 996 MIGRATION GROUPS
Info: 4 ATOMS IN LARGEST MIGRATION GROUP
Info: TOTAL MASS = 17889.4 amu
Info: TOTAL CHARGE = 0.000199992 e
Info: MASS DENSITY = 0.970809 g/cm^3
Info: ATOM DENSITY = 0.0971242 atoms/A^3
Info: ADDED 0 IMPLICIT EXCLUSIONS
Info: NONBONDED TABLE R-SQUARED SPACING: 0.0625
Info: NONBONDED TABLE SIZE: 705 POINTS
Info: REMOVING COM VELOCITY -0.00887286 0.0327401 0.12509
Info: Use 3D box decompostion in PME FFT.
Info: Updated CUDA force table with 4096 elements.
Info: Updated CUDA LJ table with 12 x 12 elements.
Info: Found 36 unique exclusion lists needing 172 bytes
TCL: Running for 1500000 steps
ETITLE: TS BOND ANGLE DIHED IMPRP ELECT VDW BOUNDARY MISC KINETIC TOTAL TEMP POTENTIAL TOTALAVG TEMPAVG PRESSURE GPRESSURE VOLUME PRESSAVG GPRESSAVG
ENERGY: 0 7.7934 20.5512 11.2987 0.0000 -10724.0673 1490.6428 0.0000 0.0000 1797.4992 -7396.2820 303.4360 -9193.7812 -7396.2820 303.4360 391.1022 457.5677 30600.0103 391.1022 457.5677
ENERGY: 300000 8.4253 16.5120 11.3171 0.0000 -10602.5256 1393.7787 0.0000 0.0000 1705.2477 -7467.2448 287.8630 -9172.4925 -7449.6963 298.6206 -473.7289 -391.1048 30517.8052 131.7131 196.9740
ENERGY: 600000 5.2636 16.0545 13.5526 0.0000 -10713.1508 1394.6076 0.0000 0.0000 1731.4766 -7552.1958 292.2907 -9283.6724 -7464.5128 298.5564 -539.0290 -457.2668 30021.0745 178.8973 234.4081
ENERGY: 900000 8.9153 17.5921 13.8120 0.0000 -10667.8005 1435.4889 0.0000 0.0000 1759.8604 -7432.1319 297.0822 -9191.9923 -7462.1982 298.9630 78.2335 193.8837 30449.8718 168.9009 227.1308
ENERGY: 1200000 10.4204 20.4802 11.8438 0.0000 -10675.4080 1464.2699 0.0000 0.0000 1771.5925 -7396.8012 299.0627 -9168.3937 -7456.8002 299.5975 -86.1111 33.5102 30437.7224 201.5739 269.2935
ENERGY: 1500000 10.9267 16.0331 12.2006 0.0000 -10834.2697 1501.2692 0.0000 0.0000 1813.8445 -7479.9956 306.1953 -9293.8401 -7453.9188 300.6110 350.7214 359.1122 30045.8364 156.0745 217.8793
TCL: Running FEP window   2: Lambda1 0.05   Lambda2 0.1    [dLambda 0.05  ]
TCL: Setting parameter firsttimestep to 0
TCL: Setting parameter alchLambda to 0.05
Info: NONBONDED TABLE R-SQUARED SPACING: 0.0625
Info: NONBONDED TABLE SIZE: 705 POINTS
TCL: Setting parameter alchLambda2 to 0.1
Info: NONBONDED TABLE R-SQUARED SPACING: 0.0625
Info: NONBONDED TABLE SIZE: 705 POINTS
TCL: Running for 1500000 steps
ETITLE: TS BOND ANGLE DIHED IMPRP ELECT VDW BOUNDARY MISC KINETIC TOTAL TEMP POTENTIAL TOTALAVG TEMPAVG PRESSURE GPRESSURE VOLUME PRESSAVG GPRESSAVG
ENERGY: 0 10.9267 16.0331 12.2006 0.0000 -10834.2697 1510.0590 0.0000 0.0000 1812.9695 -7472.0808 306.0475 -9285.0502 -7472.0808 306.0475 300.3664 374.4170 30045.8364 300.3664 374.4170
ENERGY: 300000 4.1362 14.7158 12.1982 0.0000 -10635.8733 1466.3002 0.0000 0.0000 1784.7176 -7353.8054 301.2783 -9138.5229 -7436.0710 302.3184 468.6747 505.0576 30428.5856 77.8457 133.5933
ENERGY: 600000 9.4520 15.2447 11.9843 0.0000 -10643.9497 1425.5574 0.0000 0.0000 1796.5823 -7385.1290 303.2812 -9181.7113 -7425.9700 303.3185 -185.4461 -128.6051 30636.9777 -90.6035 -27.1749
ENERGY: 900000 6.0010 14.2391 14.4720 0.0000 -10706.7540 1449.3336 0.0000 0.0000 1740.7516 -7481.9567 293.8564 -9222.7084 -7434.4991 301.9639 -69.9162 -73.2957 30292.9833 10.7357 58.7176
ENERGY: 1200000 3.6069 16.3731 13.2536 0.0000 -10749.2862 1464.7322 0.0000 0.0000 1777.0800 -7474.2404 299.9891 -9251.3204 -7439.2697 301.2942 173.2361 215.1341 29961.5574 -81.5767 -31.6649
ENERGY: 1500000 9.2003 17.8193 11.0113 0.0000 -10814.0644 1475.8126 0.0000 0.0000 1770.6662 -7529.5548 298.9063 -9300.2210 -7446.3254 300.9624 234.3912 236.3878 30063.9288 -73.1712 -24.3686
TCL: Running FEP window   3: Lambda1 0.1    Lambda2 0.15000000000000002 [dLambda 0.05000000000000002]
TCL: Setting parameter firsttimestep to 0
TCL: Setting parameter alchLambda to 0.1
Info: NONBONDED TABLE R-SQUARED SPACING: 0.0625
Info: NONBONDED TABLE SIZE: 705 POINTS
TCL: Setting parameter alchLambda2 to 0.15000000000000002
Info: NONBONDED TABLE R-SQUARED SPACING: 0.0625
Info: NONBONDED TABLE SIZE: 705 POINTS
TCL: Running for 1500000 steps
ETITLE: TS BOND ANGLE DIHED IMPRP ELECT VDW BOUNDARY MISC KINETIC TOTAL TEMP POTENTIAL TOTALAVG TEMPAVG PRESSURE GPRESSURE VOLUME PRESSAVG GPRESSAVG
ENERGY: 0 9.2003 17.8194 11.0113 0.0000 -10814.0634 1480.6700 0.0000 0.0000 1769.7687 -7525.5939 298.7548 -9295.3625 -7525.5939 298.7548 181.6645 257.0685 30063.9288 181.6645 257.0685
ENERGY: 300000 7.9291 16.2262 11.1786 0.0000 -10636.4493 1419.1726 0.0000 0.0000 1753.7392 -7428.2036 296.0489 -9181.9428 -7491.8626 295.9997 -103.1771 -39.5931 30297.5336 -229.9210 -151.2825
ENERGY: 600000 6.9476 14.8241 18.7135 0.0000 -10721.4229 1474.1720 0.0000 0.0000 1802.8561 -7403.9096 304.3403 -9206.7657 -7477.8554 297.4164 198.0587 248.1052 30523.3994 -222.1297 -162.6592
ENERGY: 900000 4.3711 11.7349 14.9269 0.0000 -10826.5252 1451.0439 0.0000 0.0000 1802.8190 -7541.6293 304.3341 -9344.4483 -7479.1732 298.9391 27.5074 66.4223 29873.2182 -383.4223 -329.8953
ENERGY: 1200000 9.8949 11.7769 12.3024 0.0000 -10627.8293 1362.7264 0.0000 0.0000 1776.1806 -7454.9482 299.8372 -9231.1288 -7476.6576 298.8077 -854.9944 -799.7593 30230.4571 -346.9190 -289.5061
ENERGY: 1500000 7.2038 15.3575 11.7511 0.0000 -10622.2726 1385.8710 0.0000 0.0000 1797.2109 -7404.8782 303.3873 -9202.0892 -7471.4967 299.4199 -384.1514 -342.1541 30234.3860 -344.3011 -284.6370
TCL: Running FEP window   4: Lambda1 0.15000000000000002 Lambda2 0.2    [dLambda 0.04999999999999999]
TCL: Setting parameter firsttimestep to 0
TCL: Setting parameter alchLambda to 0.15000000000000002
Info: NONBONDED TABLE R-SQUARED SPACING: 0.0625
Info: NONBONDED TABLE SIZE: 705 POINTS
TCL: Setting parameter alchLambda2 to 0.2
Info: NONBONDED TABLE R-SQUARED SPACING: 0.0625
Info: NONBONDED TABLE SIZE: 705 POINTS
TCL: Running for 1500000 steps
ETITLE: TS BOND ANGLE DIHED IMPRP ELECT VDW BOUNDARY MISC KINETIC TOTAL TEMP POTENTIAL TOTALAVG TEMPAVG PRESSURE GPRESSURE VOLUME PRESSAVG GPRESSAVG
ENERGY: 0 7.2038 15.3575 11.7511 0.0000 -10622.2735 1390.3065 0.0000 0.0000 1796.3638 -7401.2908 303.2443 -9197.6546 -7401.2908 303.2443 -382.4376 -319.3966 30234.3860 -382.4376 -319.3966
ENERGY: 300000 8.8933 12.6878 11.5357 0.0000 -10637.1822 1409.1414 0.0000 0.0000 1785.5107 -7409.4134 301.4122 -9194.9241 -7436.7072 299.9734 -461.7526 -353.6227 30891.3715 227.5982 278.5176
ENERGY: 600000 8.1580 22.4464 11.8680 0.0000 -10615.4647 1398.5239 0.0000 0.0000 1838.1069 -7336.3615 310.2910 -9174.4684 -7424.8531 301.4281 -65.4940 12.7919 30449.5886 18.6312 86.0389
ENERGY: 900000 5.5505 13.3542 12.4347 0.0000 -10706.5983 1457.8801 0.0000 0.0000 1784.3227 -7433.0560 301.2117 -9217.3788 -7444.7222 300.9184 81.4563 115.9542 30611.0068 118.2238 171.3943
ENERGY: 1200000 5.5757 12.9996 14.8029 0.0000 -10702.9903 1420.1389 0.0000 0.0000 1775.9340 -7473.5393 299.7956 -9249.4733 -7442.0977 301.6348 -292.4544 -239.4660 30691.1538 112.7474 167.4236
ENERGY: 1500000 6.4855 18.4092 14.5856 0.0000 -10551.2323 1349.7085 0.0000 0.0000 1791.8209 -7370.2226 302.4775 -9162.0435 -7443.1273 301.1144 -591.0146 -539.1745 30884.9442 129.7018 179.6162
TCL: Running FEP window   5: Lambda1 0.2    Lambda2 0.25   [dLambda 0.04999999999999999]
TCL: Setting parameter firsttimestep to 0
TCL: Setting parameter alchLambda to 0.2
Info: NONBONDED TABLE R-SQUARED SPACING: 0.0625
Info: NONBONDED TABLE SIZE: 705 POINTS
TCL: Setting parameter alchLambda2 to 0.25
Info: NONBONDED TABLE R-SQUARED SPACING: 0.0625
Info: NONBONDED TABLE SIZE: 705 POINTS
TCL: Running for 1500000 steps
ETITLE: TS BOND ANGLE DIHED IMPRP ELECT VDW BOUNDARY MISC KINETIC TOTAL TEMP POTENTIAL TOTALAVG TEMPAVG PRESSURE GPRESSURE VOLUME PRESSAVG GPRESSAVG
ENERGY: 0 6.4855 18.4092 14.5856 0.0000 -10551.2334 1349.8375 0.0000 0.0000 1790.9342 -7370.9815 302.3278 -9161.9157 -7370.9815 302.3278 -609.3328 -533.3078 30884.9442 -609.3328 -533.3078
ENERGY: 300000 6.4819 18.6741 14.1686 0.0000 -10603.1521 1396.5702 0.0000 0.0000 1726.1725 -7441.0848 291.3953 -9167.2573 -7451.4836 297.9870 -47.5053 -2.7841 30437.6490 12.1387 63.3790
ENERGY: 600000 9.4535 15.4779 12.7990 0.0000 -10787.4044 1459.4390 0.0000 0.0000 1783.1165 -7507.1184 301.0081 -9290.2349 -7482.0455 298.0852 -360.9369 -356.1591 30551.9026 -52.6448 -0.8552
ENERGY: 900000 11.4949 11.4136 14.5952 0.0000 -10669.4273 1435.4288 0.0000 0.0000 1788.3723 -7408.1224 301.8953 -9196.4947 -7467.5258 299.4457 -193.1584 -189.1031 30624.0961 43.6139 94.4232
ENERGY: 1200000 8.1398 18.2455 13.6041 0.0000 -10680.8935 1399.3923 0.0000 0.0000 1734.2812 -7507.2306 292.7642 -9241.5117 -7474.0410 298.6085 -542.4674 -470.0266 30466.9804 79.5905 130.4051
ENERGY: 1500000 4.9141 18.9931 16.0474 0.0000 -10826.9521 1507.4592 0.0000 0.0000 1776.9063 -7502.6320 299.9597 -9279.5383 -7477.1472 298.4967 355.4251 417.4132 30618.2947 57.7742 109.3037
TCL: Running FEP window   6: Lambda1 0.25   Lambda2 0.3    [dLambda 0.04999999999999999]
TCL: Setting parameter firsttimestep to 0
TCL: Setting parameter alchLambda to 0.25
Info: NONBONDED TABLE R-SQUARED SPACING: 0.0625
Info: NONBONDED TABLE SIZE: 705 POINTS
TCL: Setting parameter alchLambda2 to 0.3
Info: NONBONDED TABLE R-SQUARED SPACING: 0.0625
Info: NONBONDED TABLE SIZE: 705 POINTS
TCL: Running for 1500000 steps
ETITLE: TS BOND ANGLE DIHED IMPRP ELECT VDW BOUNDARY MISC KINETIC TOTAL TEMP POTENTIAL TOTALAVG TEMPAVG PRESSURE GPRESSURE VOLUME PRESSAVG GPRESSAVG
ENERGY: 0 4.9141 18.9931 16.0474 0.0000 -10826.9511 1507.8284 0.0000 0.0000 1776.0478 -7503.1203 299.8148 -9279.1681 -7503.1203 299.8148 339.8267 430.0829 30618.2947 339.8267 430.0829
ENERGY: 300000 10.4001 12.7654 13.3844 0.0000 -10589.3217 1339.5796 0.0000 0.0000 1792.1947 -7420.9976 302.5405 -9213.1923 -7451.6197 302.6491 -935.7658 -829.6727 30568.1147 -249.6308 -178.0479
ENERGY: 600000 8.5171 14.3678 12.2334 0.0000 -10766.5043 1503.3080 0.0000 0.0000 1753.6075 -7474.4705 296.0266 -9228.0780 -7444.2763 302.4390 184.5265 298.5403 31290.6451 -22.1487 48.2837
ENERGY: 900000 8.0303 14.6598 15.4317 0.0000 -10612.5799 1401.7680 0.0000 0.0000 1808.7047 -7363.9855 305.3276 -9172.6902 -7427.3609 302.4868 -396.0887 -368.9696 30704.9028 -73.5469 -2.9858
ENERGY: 1200000 7.0536 17.9768 13.2479 0.0000 -10579.6872 1396.8389 0.0000 0.0000 1763.4074 -7381.1626 297.6810 -9144.5700 -7432.1100 302.3307 -91.5277 -63.8592 30592.9875 -33.2483 30.1658
ENERGY: 1500000 3.7302 18.3112 12.9274 0.0000 -10712.0537 1467.6804 0.0000 0.0000 1733.6567 -7475.7478 292.6588 -9209.4045 -7431.3192 301.4590 394.7681 405.0270 30338.4974 -13.5300 38.4102
TCL: Running FEP window   7: Lambda1 0.3    Lambda2 0.35   [dLambda 0.04999999999999999]
TCL: Setting parameter firsttimestep to 0
TCL: Setting parameter alchLambda to 0.3
Info: NONBONDED TABLE R-SQUARED SPACING: 0.0625
Info: NONBONDED TABLE SIZE: 705 POINTS
TCL: Setting parameter alchLambda2 to 0.35
Info: NONBONDED TABLE R-SQUARED SPACING: 0.0625
Info: NONBONDED TABLE SIZE: 705 POINTS
TCL: Running for 1500000 steps
ETITLE: TS BOND ANGLE DIHED IMPRP ELECT VDW BOUNDARY MISC KINETIC TOTAL TEMP POTENTIAL TOTALAVG TEMPAVG PRESSURE GPRESSURE VOLUME PRESSAVG GPRESSAVG
ENERGY: 0 3.7302 18.3112 12.9274 0.0000 -10712.0535 1467.6454 0.0000 0.0000 1732.7531 -7476.6861 292.5062 -9209.4392 -7476.6861 292.5062 335.7814 413.7843 30338.4974 335.7814 413.7843
ENERGY: 300000 10.6306 14.3657 12.0997 0.0000 -10612.0192 1363.8926 0.0000 0.0000 1759.2715 -7451.7591 296.9828 -9211.0307 -7442.7906 298.5654 -666.8713 -602.5379 30450.7386 198.4290 258.4743
ENERGY: 600000 6.1243 16.4489 16.4774 0.0000 -10890.0013 1533.4982 0.0000 0.0000 1778.2847 -7539.1678 300.1924 -9317.4524 -7450.9859 300.0555 539.3664 552.8714 30175.7851 406.1390 451.4157
ENERGY: 900000 6.6041 13.4075 11.7886 0.0000 -10712.8396 1447.6994 0.0000 0.0000 1822.5548 -7410.7852 307.6657 -9233.3400 -7444.8660 300.5825 299.0704 327.1931 30231.8535 293.5557 343.3288
ENERGY: 1200000 10.3013 17.5078 17.0807 0.0000 -10760.8692 1452.9692 0.0000 0.0000 1750.7515 -7512.2586 295.5445 -9263.0101 -7445.0818 299.9710 -140.3076 -39.8825 30186.9343 231.3470 288.3345
ENERGY: 1500000 3.8127 18.1815 13.2286 0.0000 -10964.9347 1525.3077 0.0000 0.0000 1820.1477 -7584.2565 307.2593 -9404.4041 -7450.6687 301.6090 472.2299 514.5262 30099.7272 238.4381 294.8886
TCL: Running FEP window   8: Lambda1 0.35   Lambda2 0.39999999999999997 [dLambda 0.04999999999999999]
TCL: Setting parameter firsttimestep to 0
TCL: Setting parameter alchLambda to 0.35
Info: NONBONDED TABLE R-SQUARED SPACING: 0.0625
Info: NONBONDED TABLE SIZE: 705 POINTS
TCL: Setting parameter alchLambda2 to 0.39999999999999997
Info: NONBONDED TABLE R-SQUARED SPACING: 0.0625
Info: NONBONDED TABLE SIZE: 705 POINTS
TCL: Running for 1500000 steps
ETITLE: TS BOND ANGLE DIHED IMPRP ELECT VDW BOUNDARY MISC KINETIC TOTAL TEMP POTENTIAL TOTALAVG TEMPAVG PRESSURE GPRESSURE VOLUME PRESSAVG GPRESSAVG
ENERGY: 0 3.8127 18.1815 13.2286 0.0000 -10964.9350 1526.2746 0.0000 0.0000 1819.2803 -7584.1573 307.1129 -9403.4376 -7584.1573 307.1129 449.5425 532.4391 30099.7272 449.5425 532.4391
ENERGY: 300000 5.2628 20.2749 10.2749 0.0000 -10644.3486 1392.0081 0.0000 0.0000 1792.4391 -7424.0888 302.5818 -9216.5279 -7496.4966 303.1977 -305.9853 -329.2506 30367.3143 -172.2436 -107.5098
ENERGY: 600000 7.8989 22.9049 13.3230 0.0000 -10744.3497 1465.0766 0.0000 0.0000 1791.4288 -7443.7174 302.4113 -9235.1462 -7486.5192 302.4607 177.4672 253.7865 30444.6868 -200.9712 -144.5486
ENERGY: 900000 6.4946 14.5115 13.3428 0.0000 -10639.1307 1364.0933 0.0000 0.0000 1780.4115 -7460.2768 300.5514 -9240.6884 -7479.5980 301.8440 -781.2792 -692.3142 30789.9966 -289.0942 -229.0755
ENERGY: 1200000 9.9616 15.8087 11.4189 0.0000 -10666.5012 1468.7094 0.0000 0.0000 1795.1509 -7365.4516 303.0396 -9160.6025 -7455.5258 302.6515 67.2187 151.5565 30745.8394 -210.5510 -150.6186
ENERGY: 1500000 13.1929 11.7955 13.3071 0.0000 -10761.8198 1425.9847 0.0000 0.0000 1784.4110 -7513.1286 301.2266 -9297.5396 -7462.4166 302.6140 -509.8912 -421.3127 30484.2947 -226.6145 -165.4535
TCL: Running FEP window   9: Lambda1 0.39999999999999997 Lambda2 0.44999999999999996 [dLambda 0.04999999999999999]
TCL: Setting parameter firsttimestep to 0
TCL: Setting parameter alchLambda to 0.39999999999999997
Info: NONBONDED TABLE R-SQUARED SPACING: 0.0625
Info: NONBONDED TABLE SIZE: 705 POINTS
TCL: Setting parameter alchLambda2 to 0.44999999999999996
Info: NONBONDED TABLE R-SQUARED SPACING: 0.0625
Info: NONBONDED TABLE SIZE: 705 POINTS
TCL: Running for 1500000 steps
ETITLE: TS BOND ANGLE DIHED IMPRP ELECT VDW BOUNDARY MISC KINETIC TOTAL TEMP POTENTIAL TOTALAVG TEMPAVG PRESSURE GPRESSURE VOLUME PRESSAVG GPRESSAVG
ENERGY: 0 13.1929 11.7955 13.3071 0.0000 -10761.8207 1427.0460 0.0000 0.0000 1783.5699 -7512.9093 301.0846 -9296.4792 -7512.9093 301.0846 -488.9534 -397.8325 30484.2947 -488.9534 -397.8325
ENERGY: 300000 8.3438 11.8067 13.2914 0.0000 -10628.2669 1389.8095 0.0000 0.0000 1738.2051 -7466.8104 293.4266 -9205.0155 -7495.0186 297.4029 -216.9999 -185.5438 30786.8509 -534.1832 -426.3528
ENERGY: 600000 8.5570 10.8547 15.4668 0.0000 -10646.2001 1420.0855 0.0000 0.0000 1752.8687 -7438.3675 295.9019 -9191.2361 -7457.9350 298.3974 -32.6383 37.1384 30299.8284 -307.5560 -212.4824
ENERGY: 900000 6.2399 15.6518 14.7034 0.0000 -10747.9260 1456.1455 0.0000 0.0000 1851.7527 -7403.4328 312.5945 -9255.1855 -7444.0540 300.1138 6.8653 121.3784 30648.4194 -160.3735 -69.9946
ENERGY: 1200000 10.7191 12.6623 13.9332 0.0000 -10496.5767 1316.0931 0.0000 0.0000 1752.6228 -7390.5463 295.8604 -9143.1691 -7442.1910 299.3390 -952.6177 -923.9106 30997.2529 -169.1876 -85.5854
ENERGY: 1500000 7.3784 20.1895 11.6823 0.0000 -10716.4857 1438.1830 0.0000 0.0000 1803.2877 -7435.7647 304.4132 -9239.0524 -7438.2517 299.6761 -228.2982 -173.0517 30887.4656 -154.3606 -74.0432
TCL: Running FEP window  10: Lambda1 0.44999999999999996 Lambda2 0.49999999999999994 [dLambda 0.04999999999999999]
TCL: Setting parameter firsttimestep to 0
TCL: Setting parameter alchLambda to 0.44999999999999996
Info: NONBONDED TABLE R-SQUARED SPACING: 0.0625
Info: NONBONDED TABLE SIZE: 705 POINTS
TCL: Setting parameter alchLambda2 to 0.49999999999999994
Info: NONBONDED TABLE R-SQUARED SPACING: 0.0625
Info: NONBONDED TABLE SIZE: 705 POINTS
TCL: Running for 1500000 steps
ETITLE: TS BOND ANGLE DIHED IMPRP ELECT VDW BOUNDARY MISC KINETIC TOTAL TEMP POTENTIAL TOTALAVG TEMPAVG PRESSURE GPRESSURE VOLUME PRESSAVG GPRESSAVG
ENERGY: 0 7.3784 20.1895 11.6823 0.0000 -10716.4871 1438.1709 0.0000 0.0000 1802.3767 -7436.6893 304.2594 -9239.0660 -7436.6893 304.2594 -231.7187 -161.8726 30887.4656 -231.7187 -161.8726
ENERGY: 300000 5.2316 17.2166 15.4414 0.0000 -10712.0478 1454.5311 0.0000 0.0000 1776.7839 -7442.8432 299.9391 -9219.6271 -7440.1327 303.1545 359.2834 400.7219 30234.5797 362.2336 413.5157
ENERGY: 600000 8.5684 20.2467 13.8961 0.0000 -10591.4990 1291.5117 0.0000 0.0000 1737.2321 -7520.0440 293.2623 -9257.2761 -7448.4432 301.3598 -1243.2089 -1136.1521 30152.4058 132.1606 199.6274
ENERGY: 900000 8.4911 18.0880 13.6330 0.0000 -10742.6864 1464.6881 0.0000 0.0000 1806.2780 -7431.5082 304.9180 -9237.7862 -7456.7331 301.6030 290.5907 424.1037 30375.5079 116.0676 193.8832
ENERGY: 1200000 6.7378 24.4376 11.9329 0.0000 -10574.9545 1360.3729 0.0000 0.0000 1772.5683 -7398.9050 299.2274 -9171.4732 -7447.3551 301.9149 -789.0626 -716.5383 31109.8796 -44.9823 34.1293
ENERGY: 1500000 4.6961 14.7468 10.2673 0.0000 -10669.8851 1455.3554 0.0000 0.0000 1761.9152 -7422.9043 297.4291 -9184.8195 -7453.3054 301.6117 197.8699 291.6954 30699.0081 72.0455 151.8832
TCL: Running FEP window  11: Lambda1 0.49999999999999994 Lambda2 0.5499999999999999 [dLambda 0.04999999999999999]
TCL: Setting parameter firsttimestep to 0
TCL: Setting parameter alchLambda to 0.49999999999999994
Info: NONBONDED TABLE R-SQUARED SPACING: 0.0625
Info: NONBONDED TABLE SIZE: 705 POINTS
TCL: Setting parameter alchLambda2 to 0.5499999999999999
Info: NONBONDED TABLE R-SQUARED SPACING: 0.0625
Info: NONBONDED TABLE SIZE: 705 POINTS
TCL: Running for 1500000 steps
ETITLE: TS BOND ANGLE DIHED IMPRP ELECT VDW BOUNDARY MISC KINETIC TOTAL TEMP POTENTIAL TOTALAVG TEMPAVG PRESSURE GPRESSURE VOLUME PRESSAVG GPRESSAVG
ENERGY: 0 4.6961 14.7468 10.2673 0.0000 -10669.8851 1455.1740 0.0000 0.0000 1761.0453 -7423.9557 297.2822 -9185.0010 -7423.9557 297.2822 219.7931 297.4197 30699.0081 219.7931 297.4197
ENERGY: 300000 7.1592 16.3173 12.4304 0.0000 -10603.7002 1383.4061 0.0000 0.0000 1770.5294 -7413.8578 298.8832 -9184.3872 -7433.2008 300.0584 -692.4244 -705.9952 31212.9549 44.7630 98.3295
ENERGY: 600000 5.8760 16.8469 11.9414 0.0000 -10852.0370 1474.9957 0.0000 0.0000 1786.3438 -7556.0331 301.5529 -9342.3769 -7451.8695 300.3863 94.9736 174.7295 30250.7577 -40.7397 31.3349
ENERGY: 900000 6.3220 21.5957 12.0754 0.0000 -10792.5091 1484.6852 0.0000 0.0000 1775.8781 -7491.9526 299.7861 -9267.8307 -7467.0409 300.3784 142.1176 212.6367 30983.5936 -3.3800 70.2911
ENERGY: 1200000 5.4179 18.5066 12.8203 0.0000 -10699.5114 1380.7327 0.0000 0.0000 1829.5310 -7452.5029 308.8433 -9282.0339 -7448.7211 301.9305 -512.8303 -498.3088 30360.9524 13.7463 80.9006
ENERGY: 1500000 4.9267 23.2282 15.2630 0.0000 -10771.9481 1473.0852 0.0000 0.0000 1786.9123 -7468.5326 301.6488 -9255.4449 -7439.5869 302.0226 120.9864 179.2061 30789.1371 -104.2082 -32.0106
TCL: Running FEP window  12: Lambda1 0.5499999999999999 Lambda2 0.6    [dLambda 0.050000000000000044]
TCL: Setting parameter firsttimestep to 0
TCL: Setting parameter alchLambda to 0.5499999999999999
Info: NONBONDED TABLE R-SQUARED SPACING: 0.0625
Info: NONBONDED TABLE SIZE: 705 POINTS
TCL: Setting parameter alchLambda2 to 0.6
Info: NONBONDED TABLE R-SQUARED SPACING: 0.0625
Info: NONBONDED TABLE SIZE: 705 POINTS
TCL: Running for 1500000 steps
ETITLE: TS BOND ANGLE DIHED IMPRP ELECT VDW BOUNDARY MISC KINETIC TOTAL TEMP POTENTIAL TOTALAVG TEMPAVG PRESSURE GPRESSURE VOLUME PRESSAVG GPRESSAVG
ENERGY: 0 4.9267 23.2282 15.2630 0.0000 -10771.9042 1472.0348 0.0000 0.0000 1786.0263 -7470.4251 301.4993 -9256.4514 -7470.4251 301.4993 93.0234 181.7914 30789.1371 93.0234 181.7914
ENERGY: 300000 5.8765 15.4094 13.4634 0.0000 -10773.8828 1512.7976 0.0000 0.0000 1818.9115 -7407.4244 307.0506 -9226.3359 -7448.3685 300.2843 778.8138 932.4473 30260.6720 253.0834 354.5974
ENERGY: 600000 8.1134 15.2144 10.6295 0.0000 -10791.3036 1522.5124 0.0000 0.0000 1722.5252 -7512.3087 290.7796 -9234.8339 -7465.2923 297.9091 936.5545 988.0999 30101.7741 148.0160 244.6833
ENERGY: 900000 5.6300 15.8813 12.9347 0.0000 -10718.5337 1419.0390 0.0000 0.0000 1818.6210 -7446.4277 307.0016 -9265.0488 -7461.6150 297.7930 -93.7922 -56.4271 30676.9467 164.4417 240.4012
ENERGY: 1200000 8.1666 20.2489 13.9155 0.0000 -10795.7592 1419.1324 0.0000 0.0000 1783.2752 -7551.0206 301.0349 -9334.2958 -7478.6049 298.8998 -746.2740 -715.1163 30753.9641 -43.3351 22.6326
ENERGY: 1500000 3.7610 22.3512 21.5551 0.0000 -10487.5471 1271.8741 0.0000 0.0000 1759.7671 -7408.2386 297.0665 -9168.0057 -7467.4308 299.1872 -1200.0843 -1091.8229 30593.4632 -113.1095 -41.1878
TCL: Running FEP window  13: Lambda1 0.6    Lambda2 0.65   [dLambda 0.050000000000000044]
TCL: Setting parameter firsttimestep to 0
TCL: Setting parameter alchLambda to 0.6
Info: NONBONDED TABLE R-SQUARED SPACING: 0.0625
Info: NONBONDED TABLE SIZE: 705 POINTS
TCL: Setting parameter alchLambda2 to 0.65
Info: NONBONDED TABLE R-SQUARED SPACING: 0.0625
Info: NONBONDED TABLE SIZE: 705 POINTS
TCL: Running for 1500000 steps
ETITLE: TS BOND ANGLE DIHED IMPRP ELECT VDW BOUNDARY MISC KINETIC TOTAL TEMP POTENTIAL TOTALAVG TEMPAVG PRESSURE GPRESSURE VOLUME PRESSAVG GPRESSAVG
ENERGY: 0 3.7610 22.3512 21.5551 0.0000 -10487.9113 1271.1233 0.0000 0.0000 1758.8567 -7410.2641 296.9128 -9169.1208 -7410.2641 296.9128 -1164.3496 -1085.3978 30593.4632 -1164.3496 -1085.3978
ENERGY: 300000 5.6489 18.4008 11.4081 0.0000 -10652.4655 1407.9837 0.0000 0.0000 1772.1264 -7436.8976 299.1528 -9209.0240 -7460.8215 295.2153 -281.0148 -280.5110 30638.6918 -206.5308 -140.9619
ENERGY: 600000 6.0435 15.1773 12.7142 0.0000 -10640.7269 1375.2609 0.0000 0.0000 1777.8938 -7453.6372 300.1264 -9231.5310 -7459.8920 298.6740 -765.0601 -690.2556 30805.9169 -169.9473 -99.4523
ENERGY: 900000 10.7491 13.5075 13.7998 0.0000 -10949.9937 1506.2213 0.0000 0.0000 1702.9928 -7702.7232 287.4824 -9405.7160 -7499.5390 295.8681 316.0168 360.7538 30106.7349 -36.1724 27.1992
ENERGY: 1200000 7.2966 15.2082 11.6884 0.0000 -10706.1075 1390.5882 0.0000 0.0000 1794.8281 -7486.4980 302.9851 -9281.3261 -7485.8140 296.7168 -357.0085 -353.9144 30393.4688 -46.1361 14.2579
ENERGY: 1500000 5.3386 17.5775 14.1849 0.0000 -10786.4195 1515.7824 0.0000 0.0000 1800.7651 -7432.7711 303.9873 -9233.5362 -7471.4691 298.7161 735.4053 785.8503 30691.2261 48.0613 110.4514
TCL: Running FEP window  14: Lambda1 0.65   Lambda2 0.7000000000000001 [dLambda 0.050000000000000044]
TCL: Setting parameter firsttimestep to 0
TCL: Setting parameter alchLambda to 0.65
Info: NONBONDED TABLE R-SQUARED SPACING: 0.0625
Info: NONBONDED TABLE SIZE: 705 POINTS
TCL: Setting parameter alchLambda2 to 0.7000000000000001
Info: NONBONDED TABLE R-SQUARED SPACING: 0.0625
Info: NONBONDED TABLE SIZE: 705 POINTS
TCL: Running for 1500000 steps
ETITLE: TS BOND ANGLE DIHED IMPRP ELECT VDW BOUNDARY MISC KINETIC TOTAL TEMP POTENTIAL TOTALAVG TEMPAVG PRESSURE GPRESSURE VOLUME PRESSAVG GPRESSAVG
ENERGY: 0 5.3386 17.5775 14.1849 0.0000 -10786.7527 1516.2957 0.0000 0.0000 1799.8818 -7433.4743 303.8382 -9233.3560 -7433.4743 303.8382 707.6950 799.1367 30691.2261 707.6950 799.1367
ENERGY: 300000 4.7317 17.2667 14.0061 0.0000 -10514.0470 1307.8144 0.0000 0.0000 1778.0315 -7392.1966 300.1497 -9170.2281 -7437.9739 300.1093 -813.5405 -748.1537 30494.5812 -265.8750 -196.8992
ENERGY: 600000 6.2046 14.7849 13.5178 0.0000 -10767.8167 1507.3859 0.0000 0.0000 1794.7915 -7431.1319 302.9789 -9225.9234 -7423.3909 302.9684 701.1860 738.4872 30491.6183 -128.2167 -61.5627
ENERGY: 900000 7.3286 17.9436 15.0806 0.0000 -10629.5308 1349.7018 0.0000 0.0000 1768.2448 -7471.2314 298.4976 -9239.4762 -7436.8602 301.5099 -1052.6943 -1016.4164 31206.6009 -230.2863 -166.1888
ENERGY: 1200000 9.0473 17.2229 15.6318 0.0000 -10654.2190 1414.3992 0.0000 0.0000 1727.0995 -7470.8182 291.5518 -9197.9177 -7437.6967 301.1030 -67.8045 -41.4648 30602.8315 -183.3968 -125.5245
ENERGY: 1500000 7.5157 14.9116 13.9630 0.0000 -10628.4619 1415.1010 0.0000 0.0000 1773.6842 -7403.2864 299.4158 -9176.9707 -7442.3858 300.6202 -358.3010 -267.8127 30886.9137 -234.8119 -174.2834
TCL: Running FEP window  15: Lambda1 0.7000000000000001 Lambda2 0.7500000000000001 [dLambda 0.050000000000000044]
TCL: Setting parameter firsttimestep to 0
TCL: Setting parameter alchLambda to 0.7000000000000001
Info: NONBONDED TABLE R-SQUARED SPACING: 0.0625
Info: NONBONDED TABLE SIZE: 705 POINTS
TCL: Setting parameter alchLambda2 to 0.7500000000000001
Info: NONBONDED TABLE R-SQUARED SPACING: 0.0625
Info: NONBONDED TABLE SIZE: 705 POINTS
TCL: Running for 1500000 steps
ETITLE: TS BOND ANGLE DIHED IMPRP ELECT VDW BOUNDARY MISC KINETIC TOTAL TEMP POTENTIAL TOTALAVG TEMPAVG PRESSURE GPRESSURE VOLUME PRESSAVG GPRESSAVG
ENERGY: 0 7.5157 14.9116 13.9630 0.0000 -10630.0703 1415.0456 0.0000 0.0000 1772.8356 -7405.7989 299.2725 -9178.6345 -7405.7989 299.2725 -330.0331 -255.1557 30886.9137 -330.0331 -255.1557
ENERGY: 300000 8.7010 17.4344 13.6584 0.0000 -10692.9062 1446.8497 0.0000 0.0000 1790.2754 -7415.9872 302.2166 -9206.2626 -7425.7990 303.0383 416.9815 448.7760 30261.8186 -321.2121 -253.8427
ENERGY: 600000 6.1468 20.6232 13.5683 0.0000 -10741.6597 1500.3775 0.0000 0.0000 1780.0962 -7420.8476 300.4982 -9200.9438 -7421.7328 301.5055 760.0086 815.7898 30177.4230 149.6473 211.7501
ENERGY: 900000 5.1935 22.3942 10.5886 0.0000 -10595.0404 1423.4768 0.0000 0.0000 1733.9899 -7399.3974 292.7150 -9133.3873 -7411.6325 300.6468 54.0834 87.4180 30526.2733 -76.7911 -11.5132
ENERGY: 1200000 8.0627 12.5166 13.7317 0.0000 -10652.3723 1426.5533 0.0000 0.0000 1843.0229 -7348.4850 311.1209 -9191.5079 -7407.8406 302.5328 -27.7628 4.4011 30683.6162 -97.9615 -42.6587
ENERGY: 1500000 6.2249 16.0039 11.6469 0.0000 -10641.0237 1425.4243 0.0000 0.0000 1812.5194 -7369.2042 305.9716 -9181.7237 -7419.5053 301.8523 -36.3734 9.5519 30996.0266 -42.2632 11.7619
TCL: Running FEP window  16: Lambda1 0.7500000000000001 Lambda2 0.8000000000000002 [dLambda 0.050000000000000044]
TCL: Setting parameter firsttimestep to 0
TCL: Setting parameter alchLambda to 0.7500000000000001
Info: NONBONDED TABLE R-SQUARED SPACING: 0.0625
Info: NONBONDED TABLE SIZE: 705 POINTS
TCL: Setting parameter alchLambda2 to 0.8000000000000002
Info: NONBONDED TABLE R-SQUARED SPACING: 0.0625
Info: NONBONDED TABLE SIZE: 705 POINTS
TCL: Running for 1500000 steps
ETITLE: TS BOND ANGLE DIHED IMPRP ELECT VDW BOUNDARY MISC KINETIC TOTAL TEMP POTENTIAL TOTALAVG TEMPAVG PRESSURE GPRESSURE VOLUME PRESSAVG GPRESSAVG
ENERGY: 0 6.2249 16.0039 11.6469 0.0000 -10641.5159 1425.7292 0.0000 0.0000 1811.6589 -7370.2520 305.8263 -9181.9109 -7370.2520 305.8263 -35.0258 29.8096 30996.0266 -35.0258 29.8096
ENERGY: 300000 3.9597 17.4830 13.7315 0.0000 -10601.7710 1385.4360 0.0000 0.0000 1739.3716 -7441.7891 293.6235 -9181.1607 -7443.9779 300.1432 -139.0646 -80.6947 30647.3591 150.9096 192.7109
ENERGY: 600000 7.3173 18.9520 16.5229 0.0000 -10597.6654 1380.8530 0.0000 0.0000 1822.9183 -7351.1018 307.7270 -9174.0201 -7434.6183 300.0531 -306.5336 -172.3857 30788.3227 54.3803 111.1495
ENERGY: 900000 2.9612 20.3764 11.3272 0.0000 -10667.7598 1371.1360 0.0000 0.0000 1810.9351 -7451.0238 305.7041 -9261.9589 -7442.5292 300.9661 -186.0128 -75.3601 30113.8100 57.6724 116.6623
ENERGY: 1200000 4.6871 18.0551 12.4374 0.0000 -10565.8033 1342.1921 0.0000 0.0000 1767.1497 -7421.2819 298.3127 -9188.4315 -7432.5358 300.4070 -524.4648 -474.9904 30619.3495 -49.6749 9.9748
ENERGY: 1500000 10.9450 13.7595 11.2716 0.0000 -10628.6399 1320.5947 0.0000 0.0000 1770.0507 -7502.0183 298.8024 -9272.0690 -7439.9472 300.6826 -1059.1778 -994.8952 30503.5105 -85.3127 -23.5884
TCL: Running FEP window  17: Lambda1 0.8000000000000002 Lambda2 0.8500000000000002 [dLambda 0.050000000000000044]
TCL: Setting parameter firsttimestep to 0
TCL: Setting parameter alchLambda to 0.8000000000000002
Info: NONBONDED TABLE R-SQUARED SPACING: 0.0625
Info: NONBONDED TABLE SIZE: 705 POINTS
TCL: Setting parameter alchLambda2 to 0.8500000000000002
Info: NONBONDED TABLE R-SQUARED SPACING: 0.0625
Info: NONBONDED TABLE SIZE: 705 POINTS
TCL: Running for 1500000 steps
ETITLE: TS BOND ANGLE DIHED IMPRP ELECT VDW BOUNDARY MISC KINETIC TOTAL TEMP POTENTIAL TOTALAVG TEMPAVG PRESSURE GPRESSURE VOLUME PRESSAVG GPRESSAVG
ENERGY: 0 10.9450 13.7595 11.2716 0.0000 -10630.1844 1321.2650 0.0000 0.0000 1769.2122 -7503.7310 298.6609 -9272.9432 -7503.7310 298.6609 -1060.5160 -971.1980 30503.5105 -1060.5160 -971.1980
ENERGY: 300000 4.5716 18.2339 12.7349 0.0000 -10679.7198 1452.1715 0.0000 0.0000 1836.5523 -7355.4557 310.0286 -9192.0080 -7454.2439 301.7356 387.5231 449.9536 30617.8643 -413.3859 -350.0871
ENERGY: 600000 8.2913 14.3459 9.4889 0.0000 -10661.6328 1386.3857 0.0000 0.0000 1783.8553 -7459.2657 301.1328 -9243.1210 -7441.4965 301.7388 -504.4299 -455.6752 30779.3419 -478.1380 -423.8840
ENERGY: 900000 6.5755 19.0326 15.9563 0.0000 -10636.7265 1365.7357 0.0000 0.0000 1782.7433 -7446.6831 300.9451 -9229.4264 -7455.3015 301.0556 -775.5096 -679.9449 31086.2713 -412.2291 -350.6839
ENERGY: 1200000 7.5161 19.5612 12.3260 0.0000 -10797.3871 1459.6890 0.0000 0.0000 1775.8969 -7522.3980 299.7893 -9298.2949 -7462.9034 301.1545 -147.7369 -54.5623 30581.7036 -337.7558 -282.2826
ENERGY: 1500000 5.9830 14.6609 14.5512 0.0000 -10866.4296 1557.5547 0.0000 0.0000 1740.7935 -7532.8864 293.8635 -9273.6799 -7473.3139 299.9919 1155.9607 1239.2721 30111.6697 -276.5476 -222.7941
TCL: Running FEP window  18: Lambda1 0.8500000000000002 Lambda2 0.9000000000000002 [dLambda 0.050000000000000044]
TCL: Setting parameter firsttimestep to 0
TCL: Setting parameter alchLambda to 0.8500000000000002
Info: NONBONDED TABLE R-SQUARED SPACING: 0.0625
Info: NONBONDED TABLE SIZE: 705 POINTS
TCL: Setting parameter alchLambda2 to 0.9000000000000002
Info: NONBONDED TABLE R-SQUARED SPACING: 0.0625
Info: NONBONDED TABLE SIZE: 705 POINTS
TCL: Running for 1500000 steps
ETITLE: TS BOND ANGLE DIHED IMPRP ELECT VDW BOUNDARY MISC KINETIC TOTAL TEMP POTENTIAL TOTALAVG TEMPAVG PRESSURE GPRESSURE VOLUME PRESSAVG GPRESSAVG
ENERGY: 0 5.9831 14.6609 14.5512 0.0000 -10868.6007 1557.8173 0.0000 0.0000 1739.9213 -7535.6670 293.7163 -9275.5883 -7535.6670 293.7163 1180.2643 1254.4413 30111.6697 1180.2643 1254.4413
ENERGY: 300000 7.6851 12.7777 14.8362 0.0000 -10697.5244 1436.1851 0.0000 0.0000 1809.7279 -7416.3125 305.5003 -9226.0404 -7474.9953 298.1004 99.0970 148.1762 30809.7210 475.8080 545.5559
ENERGY: 600000 6.9726 22.7419 12.1709 0.0000 -10664.5050 1349.9445 0.0000 0.0000 1794.5476 -7478.1275 302.9378 -9272.6751 -7474.2834 299.1436 -612.4269 -542.0930 30471.8834 146.4461 207.0531
ENERGY: 900000 2.6751 14.2597 14.0681 0.0000 -10704.7850 1483.7911 0.0000 0.0000 1738.2561 -7451.7349 293.4352 -9189.9911 -7453.1569 300.3977 534.4167 597.6759 30505.3716 -25.1467 28.4047
ENERGY: 1200000 9.4436 13.2549 13.8004 0.0000 -10674.5386 1386.0295 0.0000 0.0000 1775.0346 -7476.9756 299.6438 -9252.0102 -7458.7479 300.9451 -401.7968 -383.1737 30690.3085 -26.8653 27.8911
ENERGY: 1500000 4.6833 20.5166 11.7986 0.0000 -10528.6797 1299.6222 0.0000 0.0000 1814.5231 -7377.5358 306.3098 -9192.0589 -7459.2794 301.4293 -734.5397 -762.4637 30882.2280 -110.8497 -53.4728
TCL: Running FEP window  19: Lambda1 0.9000000000000002 Lambda2 0.9500000000000003 [dLambda 0.050000000000000044]
TCL: Setting parameter firsttimestep to 0
TCL: Setting parameter alchLambda to 0.9000000000000002
Info: NONBONDED TABLE R-SQUARED SPACING: 0.0625
Info: NONBONDED TABLE SIZE: 705 POINTS
TCL: Setting parameter alchLambda2 to 0.9500000000000003
Info: NONBONDED TABLE R-SQUARED SPACING: 0.0625
Info: NONBONDED TABLE SIZE: 705 POINTS
TCL: Running for 1500000 steps
ETITLE: TS BOND ANGLE DIHED IMPRP ELECT VDW BOUNDARY MISC KINETIC TOTAL TEMP POTENTIAL TOTALAVG TEMPAVG PRESSURE GPRESSURE VOLUME PRESSAVG GPRESSAVG
ENERGY: 0 4.6833 20.5166 11.7986 0.0000 -10530.6658 1299.5848 0.0000 0.0000 1813.6480 -7380.4344 306.1621 -9194.0824 -7380.4344 306.1621 -823.3927 -747.5847 30882.2280 -823.3927 -747.5847
ENERGY: 300000 8.5507 18.5153 12.8942 0.0000 -10618.8946 1389.3625 0.0000 0.0000 1759.0849 -7430.4870 296.9513 -9189.5720 -7429.5384 302.7371 -349.2280 -294.3048 30565.3343 -16.6662 36.9956
ENERGY: 600000 6.0188 17.1300 14.4338 0.0000 -10647.7020 1433.1924 0.0000 0.0000 1774.0618 -7402.8652 299.4795 -9176.9270 -7434.1857 302.4529 368.3993 416.5629 30312.0954 -38.8948 9.2811
ENERGY: 900000 5.8607 24.4870 11.5515 0.0000 -10768.2493 1400.5229 0.0000 0.0000 1785.8339 -7539.9933 301.4668 -9325.8272 -7458.4678 300.8023 -419.7541 -378.4202 30344.9888 -89.8168 -36.4236
ENERGY: 1200000 6.2997 26.9269 12.6972 0.0000 -10623.4098 1383.2153 0.0000 0.0000 1747.0531 -7447.2176 294.9202 -9194.2707 -7456.3988 300.3958 -221.4743 -161.9829 30459.8999 -93.3092 -38.7657
ENERGY: 1500000 8.2270 12.4252 11.2007 0.0000 -10788.8948 1481.0979 0.0000 0.0000 1701.8687 -7574.0753 287.2926 -9275.9440 -7468.6244 299.5258 -13.1677 86.0082 30643.3322 -126.4544 -75.5841
TCL: Running FEP window  20: Lambda1 0.9500000000000003 Lambda2 1.0    [dLambda 0.04999999999999971]
TCL: Setting parameter firsttimestep to 0
TCL: Setting parameter alchLambda to 0.9500000000000003
Info: NONBONDED TABLE R-SQUARED SPACING: 0.0625
Info: NONBONDED TABLE SIZE: 705 POINTS
TCL: Setting parameter alchLambda2 to 1.0
Info: NONBONDED TABLE R-SQUARED SPACING: 0.0625
Info: NONBONDED TABLE SIZE: 705 POINTS
TCL: Running for 1500000 steps
ETITLE: TS BOND ANGLE DIHED IMPRP ELECT VDW BOUNDARY MISC KINETIC TOTAL TEMP POTENTIAL TOTALAVG TEMPAVG PRESSURE GPRESSURE VOLUME PRESSAVG GPRESSAVG
ENERGY: 0 8.2270 12.4253 11.2007 0.0000 -10791.8776 1482.9326 0.0000 0.0000 1700.9648 -7576.1274 287.1400 -9277.0922 -7576.1274 287.1400 25.4762 123.3087 30643.3322 25.4762 123.3087
ENERGY: 300000 9.8675 18.3240 12.9616 0.0000 -10656.5662 1343.8362 0.0000 0.0000 1751.5340 -7520.0429 295.6766 -9271.5769 -7472.5405 297.8845 -816.3923 -764.8762 30376.3841 -352.7047 -288.2576
ENERGY: 600000 7.5384 15.2024 11.5661 0.0000 -10611.9184 1400.0687 0.0000 0.0000 1751.2271 -7426.3156 295.6248 -9177.5428 -7452.4243 299.2880 -131.4394 -87.4100 30993.3503 -208.6463 -129.9956
ENERGY: 900000 6.0134 16.6232 10.0689 0.0000 -10742.7100 1493.9917 0.0000 0.0000 1812.3184 -7403.6943 305.9376 -9216.0128 -7450.5213 299.7975 996.5817 1014.1736 30095.0988 -131.2026 -66.8670
ENERGY: 1200000 7.4366 13.1919 13.5232 0.0000 -10757.3316 1400.7535 0.0000 0.0000 1807.4998 -7514.9267 305.1242 -9322.4265 -7452.7508 300.1853 -216.1717 -150.2397 30163.2651 -63.1440 4.8158
ENERGY: 1500000 5.7173 12.1697 13.1784 0.0000 -10730.1018 1487.1770 0.0000 0.0000 1761.7529 -7450.1066 297.4017 -9211.8594 -7451.0149 299.9968 605.6020 703.5410 30581.7046 -80.6392 -12.0766
TCL: Exiting due to exit command.
