Info: SIMULATION PARAMETERS:
Info: TIMESTEP               2
Info: NUMBER OF STEPS        0
Info: STEPS PER CYCLE        10
Info: PERIODIC CELL BASIS 1  32.3483 0 0
Info: PERIODIC CELL BASIS 2  0 28.5479 0
Info: PERIODIC CELL BASIS 3  0 0 32.8814
Info: PERIODIC CELL CENTER   0 0 0
Info: WRAPPING WATERS AROUND PERIODIC BOUNDARIES ON OUTPUT.
Info: WRAPPING ALL CLUSTERS AROUND PERIODIC BOUNDARIES ON OUTPUT.
Info: FIRST LDB TIMESTEP     50
Info: LAST LDB TIMESTEP     -1
Info: HOM BACKGROUND SCALING 1
Info: PME BACKGROUND SCALING 1
Info: MIN ATOMS PER PATCH    40
Info: EMPTY PATCH LOAD       40 ATOMS
Info: VELOCITY FILE          mobley_8207196_equil.vel
Info: CENTER OF MASS MOVING INITIALLY? NO
Info: DIELECTRIC             1
Info: EXCLUDE                SCALED ONE-FOUR
Info: 1-4 ELECTROSTATICS SCALED BY 0.833333
Info: MODIFIED 1-4 VDW PARAMETERS WILL BE USED
Info: DCD FILENAME           mobley_8207196_prod.dcd
Info: DCD FREQUENCY          100000
Info: DCD FIRST STEP         100000
Info: DCD FILE WILL CONTAIN UNIT CELL DATA
Info: XST FILENAME           mobley_8207196_prod.xst
Info: XST FREQUENCY          100000
Info: NO VELOCITY DCD OUTPUT
Info: NO FORCE DCD OUTPUT
Info: OUTPUT FILENAME        mobley_8207196_prod
Info: BINARY OUTPUT FILES WILL BE USED
Info: RESTART FILENAME       mobley_8207196_prod.restart
Info: RESTART FREQUENCY      100000
Info: BINARY RESTART FILES WILL BE USED
Info: CUTOFF                 9
Info: PAIRLIST DISTANCE      11
Info: PAIRLIST SHRINK RATE   0.01
Info: PAIRLIST GROW RATE     0.01
Info: PAIRLIST TRIGGER       0.3
Info: PAIRLISTS PER CYCLE    2
Info: PAIRLISTS ENABLED
Info: MARGIN                 2
Info: HYDROGEN GROUP CUTOFF  2.5
Info: PATCH DIMENSION        15.5
Info: ENERGY OUTPUT STEPS    100000
Info: ENERGY EVALUATION STEPS    100000
Info: OUTPUT ENERGY PRECISION 4
Info: CROSSTERM ENERGY INCLUDED IN DIHEDRAL
Info: TIMING OUTPUT STEPS    1000000
Info: PRESSURE OUTPUT STEPS  100000
Info: ALCHEMICAL FEP ON
Info: FEP CURRENT LAMBDA VALUE     0
Info: FEP COMPARISON LAMBDA VALUE  0.05
Info: FEP INTRA-ALCHEMICAL NON-BONDED INTERACTIONS WILL BE RETAINED
Info: FEP INTRA-ALCHEMICAL BONDED INTERACTIONS WILL BE RETAINED
Info: FEP VDW SHIFTING COEFFICIENT 5
Info: FEP ELEC. ACTIVE FOR ANNIHILATED PARTICLES BETWEEN LAMBDA = 0 AND LAMBDA = 0.5
Info: FEP ELEC. ACTIVE FOR EXNIHILATED PARTICLES BETWEEN LAMBDA = 0.5 AND LAMBDA = 1
Info: FEP VDW ACTIVE FOR ANNIHILATED PARTICLES BETWEEN LAMBDA = 0 AND LAMBDA = 1
Info: FEP VDW ACTIVE FOR EXNIHILATED PARTICLES BETWEEN LAMBDA = 0 AND LAMBDA = 1
Info: FEP BOND ACTIVE FOR ANNIHILATED PARTICLES BETWEEN LAMBDA = 1 AND LAMBDA = 1
Info: FEP BOND ACTIVE FOR EXNIHILATED PARTICLES BETWEEN LAMBDA = 0 AND LAMBDA = 0
Info: LANGEVIN DYNAMICS ACTIVE
Info: LANGEVIN TEMPERATURE   300
Info: LANGEVIN USING BBK INTEGRATOR
Info: LANGEVIN DAMPING COEFFICIENT IS 1 INVERSE PS
Info: LANGEVIN DYNAMICS APPLIED TO HYDROGENS
Info: LANGEVIN PISTON PRESSURE CONTROL ACTIVE
Info:        TARGET PRESSURE IS 1.01325 BAR
Info:     OSCILLATION PERIOD IS 50 FS
Info:             DECAY TIME IS 25 FS
Info:     PISTON TEMPERATURE IS 300 K
Info:       PRESSURE CONTROL IS GROUP-BASED
Info:    INITIAL STRAIN RATE IS 0.000441962 0.000441962 0.000441962
Info:       CELL FLUCTUATION IS ISOTROPIC
Info: PARTICLE MESH EWALD (PME) ACTIVE
Info: PME TOLERANCE               1e-06
Info: PME EWALD COEFFICIENT       0.348832
Info: PME INTERPOLATION ORDER     4
Info: PME GRID DIMENSIONS         36 32 36
Info: PME MAXIMUM GRID SPACING    1
Info: PME CALCULATION WILL BE PERFORMED ON GPU
Info: FULL ELECTROSTATIC EVALUATION FREQUENCY      2
Info: USING VERLET I (r-RESPA) MTS SCHEME.
Info: C1 SPLITTING OF LONG RANGE ELECTROSTATICS
Info: PLACING ATOMS IN PATCHES BY HYDROGEN GROUPS
Info: RIGID BONDS TO HYDROGEN : ALL
Info:         ERROR TOLERANCE : 1e-08
Info:          MAX ITERATIONS : 100
Info: RIGID WATER USING SETTLE ALGORITHM
Info: RANDOM NUMBER SEED     1743986010
Info: USE HYDROGEN BONDS?    NO
Info: Using AMBER format force field!
Info: AMBER PARM FILE        mobley_8207196.prmtop
Info: COORDINATE PDB         mobley_8207196.pdb
Info: Exclusions will be read from PARM file!
Info: SCNB (VDW SCALING)     2
Info: USING ARITHMETIC MEAN TO COMBINE L-J SIGMA PARAMETERS
Info: BINARY COORDINATES     mobley_8207196_equil.coor
Info: SUMMARY OF PARAMETERS:
Info: 10 BONDS
Info: 13 ANGLES
Info:   13 HARMONIC
Info:   0 COSINE-BASED
Info: 5 DIHEDRAL
Info: 0 IMPROPER
Info: 0 CROSSTERM
Info: 0 VDW
Info: 45 VDW_PAIRS
Info: 0 NBTHOLE_PAIRS
Info: To read alchdata from file: mobley_8207196.pdb
Info: To read alchflag data from column: 5
Info: STRUCTURE SUMMARY:
Info: 2959 ATOMS
Info: 2959 BONDS
Info: 42 ANGLES
Info: 55 DIHEDRALS
Info: 0 IMPROPERS
Info: 0 CROSSTERMS
Info: 3048 EXCLUSIONS
Info: 2946 RIGID BONDS
Info: ALCH: 0 ATOMS TO DISAPPEAR IN FINAL STATE
Info: ALCH: 25 ATOMS TO APPEAR IN FINAL STATE
Info: 5931 DEGREES OF FREEDOM
Info: 991 HYDROGEN GROUPS
Info: 4 ATOMS IN LARGEST HYDROGEN GROUP
Info: 991 MIGRATION GROUPS
Info: 4 ATOMS IN LARGEST MIGRATION GROUP
Info: TOTAL MASS = 17821.3 amu
Info: TOTAL CHARGE = -0.000100024 e
Info: MASS DENSITY = 0.974592 g/cm^3
Info: ATOM DENSITY = 0.0974471 atoms/A^3
Info: ADDED 0 IMPLICIT EXCLUSIONS
Info: NONBONDED TABLE R-SQUARED SPACING: 0.0625
Info: NONBONDED TABLE SIZE: 705 POINTS
Info: REMOVING COM VELOCITY -0.0189266 -0.0833118 0.0600921
Info: Use 3D box decompostion in PME FFT.
Info: Updated CUDA force table with 4096 elements.
Info: Updated CUDA LJ table with 9 x 9 elements.
Info: Found 28 unique exclusion lists needing 80 bytes
TCL: Running for 1500000 steps
ETITLE: TS BOND ANGLE DIHED IMPRP ELECT VDW BOUNDARY MISC KINETIC TOTAL TEMP POTENTIAL TOTALAVG TEMPAVG PRESSURE GPRESSURE VOLUME PRESSAVG GPRESSAVG
ENERGY: 0 9.6290 12.9565 11.6681 0.0000 -11114.1355 1452.7284 0.0000 0.0000 1737.0423 -7890.1111 294.7629 -9627.1535 -7890.1111 294.7629 -31.9616 60.1001 30365.1938 -31.9616 60.1001
ENERGY: 300000 5.0859 19.5102 2.9489 0.0000 -11161.9024 1439.5145 0.0000 0.0000 1827.1835 -7867.6594 310.0592 -9694.8429 -7889.9874 302.0978 -8.2804 82.0163 29908.0912 -83.6257 -18.5038
ENERGY: 600000 8.8158 14.1001 2.1275 0.0000 -11173.4633 1453.1082 0.0000 0.0000 1857.1747 -7838.1369 315.1485 -9695.3116 -7879.9973 304.2463 -82.5155 8.7970 30111.5802 -150.0542 -84.0426
ENERGY: 900000 5.1230 17.2393 5.0200 0.0000 -11185.3069 1414.4704 0.0000 0.0000 1852.4314 -7891.0228 314.3436 -9743.4542 -7875.1483 304.5684 -309.7054 -230.6218 29762.6244 -177.3317 -104.9373
ENERGY: 1200000 6.1854 16.9745 4.4841 0.0000 -11211.3618 1538.3381 0.0000 0.0000 1775.7522 -7869.6275 301.3317 -9645.3798 -7885.6275 303.7972 795.5059 819.8492 30119.9412 -65.3265 5.5064
ENERGY: 1500000 8.7790 19.2109 3.7073 0.0000 -11152.3135 1463.7065 0.0000 0.0000 1803.4777 -7853.4320 306.0365 -9656.9097 -7883.3918 303.0670 174.0286 193.0063 30222.7508 -55.9549 11.2969
TCL: Running FEP window   2: Lambda1 0.05   Lambda2 0.1    [dLambda 0.05  ]
TCL: Setting parameter firsttimestep to 0
TCL: Setting parameter alchLambda to 0.05
Info: NONBONDED TABLE R-SQUARED SPACING: 0.0625
Info: NONBONDED TABLE SIZE: 705 POINTS
TCL: Setting parameter alchLambda2 to 0.1
Info: NONBONDED TABLE R-SQUARED SPACING: 0.0625
Info: NONBONDED TABLE SIZE: 705 POINTS
TCL: Running for 1500000 steps
ETITLE: TS BOND ANGLE DIHED IMPRP ELECT VDW BOUNDARY MISC KINETIC TOTAL TEMP POTENTIAL TOTALAVG TEMPAVG PRESSURE GPRESSURE VOLUME PRESSAVG GPRESSAVG
ENERGY: 0 8.7790 19.2109 3.7073 0.0000 -11152.3143 1467.6833 0.0000 0.0000 1802.6128 -7850.3210 305.8897 -9652.9338 -7850.3210 305.8897 120.0325 201.1941 30222.7508 120.0325 201.1941
ENERGY: 300000 8.2612 17.2239 5.8680 0.0000 -11135.7635 1511.4074 0.0000 0.0000 1804.3542 -7788.6488 306.1852 -9593.0030 -7857.4280 300.7308 731.0071 808.0788 30059.0954 -36.5544 47.1854
ENERGY: 600000 4.2223 14.6218 5.7066 0.0000 -11176.9938 1527.1644 0.0000 0.0000 1765.7928 -7859.4859 299.6417 -9625.2786 -7863.0292 299.1906 963.4182 977.5925 29790.1932 -9.0067 77.2965
ENERGY: 900000 5.2509 10.7377 2.7560 0.0000 -11088.5499 1396.5722 0.0000 0.0000 1758.9632 -7914.2699 298.4827 -9673.2332 -7883.3423 300.2358 -702.7376 -596.7274 30375.6898 -54.2819 19.3194
ENERGY: 1200000 11.4828 17.1003 8.9901 0.0000 -11256.8164 1553.1162 0.0000 0.0000 1799.0746 -7867.0524 305.2893 -9666.1270 -7884.3711 300.9818 792.8432 872.4079 30387.5989 -6.0340 67.8806
ENERGY: 1500000 8.5949 19.9075 6.7740 0.0000 -10963.3478 1277.9821 0.0000 0.0000 1787.7586 -7862.3308 303.3691 -9650.0895 -7876.7298 301.2751 -1487.9039 -1352.5005 30738.5660 -85.9174 -8.0461
TCL: Running FEP window   3: Lambda1 0.1    Lambda2 0.15000000000000002 [dLambda 0.05000000000000002]
TCL: Setting parameter firsttimestep to 0
TCL: Setting parameter alchLambda to 0.1
Info: NONBONDED TABLE R-SQUARED SPACING: 0.0625
Info: NONBONDED TABLE SIZE: 705 POINTS
TCL: Setting parameter alchLambda2 to 0.15000000000000002
Info: NONBONDED TABLE R-SQUARED SPACING: 0.0625
Info: NONBONDED TABLE SIZE: 705 POINTS
TCL: Running for 1500000 steps
ETITLE: TS BOND ANGLE DIHED IMPRP ELECT VDW BOUNDARY MISC KINETIC TOTAL TEMP POTENTIAL TOTALAVG TEMPAVG PRESSURE GPRESSURE VOLUME PRESSAVG GPRESSAVG
ENERGY: 0 8.5949 19.9075 6.7740 0.0000 -10963.3465 1279.9872 0.0000 0.0000 1786.9140 -7861.1690 303.2258 -9648.0830 -7861.1690 303.2258 -1419.0075 -1344.4359 30738.5660 -1419.0075 -1344.4359
ENERGY: 300000 14.6342 17.0531 4.0285 0.0000 -11236.8492 1466.6426 0.0000 0.0000 1761.6524 -7972.8384 298.9391 -9734.4907 -7915.0796 300.0876 246.5811 240.2687 30122.5344 -380.7755 -329.6376
ENERGY: 600000 5.2889 13.2871 6.1257 0.0000 -11020.3237 1404.6097 0.0000 0.0000 1758.9133 -7832.0990 298.4743 -9591.0123 -7877.0226 299.7698 -133.2761 -62.7077 30193.8330 -265.5264 -215.3917
ENERGY: 900000 4.3040 12.0730 7.3318 0.0000 -10983.4885 1313.9699 0.0000 0.0000 1748.2927 -7897.5170 296.6720 -9645.8097 -7880.7661 299.7270 -1020.2006 -997.2472 30354.6541 -267.7193 -217.2192
ENERGY: 1200000 6.0381 10.4501 1.8650 0.0000 -11133.0350 1454.4138 0.0000 0.0000 1801.9311 -7858.3370 305.7741 -9660.2680 -7876.6421 299.9793 -213.6273 -140.2013 30446.5680 -184.1317 -134.2921
ENERGY: 1500000 7.0525 14.0258 6.4471 0.0000 -11181.1165 1482.3066 0.0000 0.0000 1785.9745 -7885.3100 303.0663 -9671.2845 -7872.5037 300.8612 396.4595 393.7879 29724.4242 -106.5374 -54.0254
TCL: Running FEP window   4: Lambda1 0.15000000000000002 Lambda2 0.2    [dLambda 0.04999999999999999]
TCL: Setting parameter firsttimestep to 0
TCL: Setting parameter alchLambda to 0.15000000000000002
Info: NONBONDED TABLE R-SQUARED SPACING: 0.0625
Info: NONBONDED TABLE SIZE: 705 POINTS
TCL: Setting parameter alchLambda2 to 0.2
Info: NONBONDED TABLE R-SQUARED SPACING: 0.0625
Info: NONBONDED TABLE SIZE: 705 POINTS
TCL: Running for 1500000 steps
ETITLE: TS BOND ANGLE DIHED IMPRP ELECT VDW BOUNDARY MISC KINETIC TOTAL TEMP POTENTIAL TOTALAVG TEMPAVG PRESSURE GPRESSURE VOLUME PRESSAVG GPRESSAVG
ENERGY: 0 7.0525 14.0259 6.4471 0.0000 -11181.1191 1482.4051 0.0000 0.0000 1785.0984 -7886.0902 302.9177 -9671.1886 -7886.0902 302.9177 321.0534 398.4436 29724.4242 321.0534 398.4436
ENERGY: 300000 6.0228 19.3767 4.7757 0.0000 -11191.5222 1446.1670 0.0000 0.0000 1786.8466 -7928.3334 303.2143 -9715.1801 -7890.8282 302.1381 18.1595 67.8119 30056.1732 129.2848 190.9436
ENERGY: 600000 4.9752 12.9368 5.1456 0.0000 -10964.3966 1354.1804 0.0000 0.0000 1829.6719 -7757.4868 310.4815 -9587.1587 -7866.8366 303.8510 -473.7341 -450.8479 30325.7555 188.9449 243.9852
ENERGY: 900000 4.0908 15.2150 4.1804 0.0000 -11086.1925 1448.5931 0.0000 0.0000 1808.3160 -7805.7972 306.8575 -9614.1131 -7877.5062 302.1023 -158.3910 -98.7927 30467.2627 87.9234 136.9782
ENERGY: 1200000 8.5933 18.7630 4.0010 0.0000 -11235.4453 1463.7408 0.0000 0.0000 1780.0547 -7960.2925 302.0618 -9740.3472 -7886.3123 301.2232 117.7761 218.1443 29924.6695 77.0388 132.9733
ENERGY: 1500000 7.4147 21.3286 4.1360 0.0000 -11017.0358 1324.7646 0.0000 0.0000 1738.9098 -7920.4820 295.0798 -9659.3918 -7884.0098 300.9473 -901.7148 -879.9972 30454.5866 -24.9248 29.8866
TCL: Running FEP window   5: Lambda1 0.2    Lambda2 0.25   [dLambda 0.04999999999999999]
TCL: Setting parameter firsttimestep to 0
TCL: Setting parameter alchLambda to 0.2
Info: NONBONDED TABLE R-SQUARED SPACING: 0.0625
Info: NONBONDED TABLE SIZE: 705 POINTS
TCL: Setting parameter alchLambda2 to 0.25
Info: NONBONDED TABLE R-SQUARED SPACING: 0.0625
Info: NONBONDED TABLE SIZE: 705 POINTS
TCL: Running for 1500000 steps
ETITLE: TS BOND ANGLE DIHED IMPRP ELECT VDW BOUNDARY MISC KINETIC TOTAL TEMP POTENTIAL TOTALAVG TEMPAVG PRESSURE GPRESSURE VOLUME PRESSAVG GPRESSAVG
ENERGY: 0 7.4147 21.3286 4.1360 0.0000 -11017.0368 1325.0542 0.0000 0.0000 1738.0531 -7921.0500 294.9345 -9659.1032 -7921.0500 294.9345 -947.0562 -872.3164 30454.5866 -947.0562 -872.3164
ENERGY: 300000 6.8975 18.2388 4.1675 0.0000 -10961.0146 1301.2768 0.0000 0.0000 1766.9042 -7863.5298 299.8303 -9630.4340 -7889.7539 301.2991 -1057.5701 -979.3315 30336.1233 -560.7751 -509.1028
ENERGY: 600000 4.4181 10.0098 3.5356 0.0000 -11046.5624 1486.5376 0.0000 0.0000 1787.2049 -7754.8563 303.2751 -9542.0612 -7860.4045 301.0440 516.8132 592.8749 30605.7974 -323.9912 -253.2917
ENERGY: 900000 3.8331 11.6499 4.8822 0.0000 -11135.1827 1421.6301 0.0000 0.0000 1780.3400 -7912.8474 302.1102 -9693.1874 -7881.6445 299.8616 -6.6498 48.6188 29903.2489 -236.6346 -168.5000
ENERGY: 1200000 8.7212 18.5821 5.9744 0.0000 -11128.7146 1386.2390 0.0000 0.0000 1767.1053 -7942.0926 299.8644 -9709.1979 -7891.3157 300.7570 -347.1074 -303.5015 30025.9172 -161.1070 -95.4661
ENERGY: 1500000 4.8809 15.8515 4.1774 0.0000 -11113.2481 1407.3326 0.0000 0.0000 1758.8866 -7922.1191 298.4697 -9681.0057 -7895.3288 300.6341 -465.2047 -412.4607 30357.6599 -134.8838 -72.9944
TCL: Running FEP window   6: Lambda1 0.25   Lambda2 0.3    [dLambda 0.04999999999999999]
TCL: Setting parameter firsttimestep to 0
TCL: Setting parameter alchLambda to 0.25
Info: NONBONDED TABLE R-SQUARED SPACING: 0.0625
Info: NONBONDED TABLE SIZE: 705 POINTS
TCL: Setting parameter alchLambda2 to 0.3
Info: NONBONDED TABLE R-SQUARED SPACING: 0.0625
Info: NONBONDED TABLE SIZE: 705 POINTS
TCL: Running for 1500000 steps
ETITLE: TS BOND ANGLE DIHED IMPRP ELECT VDW BOUNDARY MISC KINETIC TOTAL TEMP POTENTIAL TOTALAVG TEMPAVG PRESSURE GPRESSURE VOLUME PRESSAVG GPRESSAVG
ENERGY: 0 4.8809 15.8515 4.1774 0.0000 -11113.2496 1406.5509 0.0000 0.0000 1758.0077 -7923.7812 298.3206 -9681.7890 -7923.7812 298.3206 -498.2669 -411.4771 30357.6599 -498.2669 -411.4771
ENERGY: 300000 5.6032 19.0294 3.6783 0.0000 -11003.7760 1383.9843 0.0000 0.0000 1756.5397 -7834.9410 298.0715 -9591.4807 -7910.8192 299.1696 -379.4565 -258.9595 30419.8349 -198.1410 -124.9528
ENERGY: 600000 8.6662 18.4416 4.8698 0.0000 -11014.2176 1378.2588 0.0000 0.0000 1832.2545 -7771.7266 310.9197 -9603.9811 -7873.6695 301.5695 -607.4976 -456.8875 30698.5423 -137.1623 -55.3623
ENERGY: 900000 10.8399 11.8954 4.6400 0.0000 -11096.6278 1388.6539 0.0000 0.0000 1788.8940 -7891.7046 303.5618 -9680.5986 -7881.1889 301.6842 -462.5825 -380.6606 30393.2629 -46.5174 33.4443
ENERGY: 1200000 5.2866 13.8281 5.0444 0.0000 -11279.7006 1520.8671 0.0000 0.0000 1795.3724 -7939.3020 304.6611 -9734.6745 -7891.2780 301.2220 468.1862 512.7506 29820.8747 45.0543 120.1458
ENERGY: 1500000 6.2943 15.3827 7.7617 0.0000 -11094.8230 1431.2582 0.0000 0.0000 1845.5365 -7788.5896 313.1736 -9634.1262 -7881.4042 302.5397 38.9188 104.3085 30046.3654 77.6790 153.3960
TCL: Running FEP window   7: Lambda1 0.3    Lambda2 0.35   [dLambda 0.04999999999999999]
TCL: Setting parameter firsttimestep to 0
TCL: Setting parameter alchLambda to 0.3
Info: NONBONDED TABLE R-SQUARED SPACING: 0.0625
Info: NONBONDED TABLE SIZE: 705 POINTS
TCL: Setting parameter alchLambda2 to 0.35
Info: NONBONDED TABLE R-SQUARED SPACING: 0.0625
Info: NONBONDED TABLE SIZE: 705 POINTS
TCL: Running for 1500000 steps
ETITLE: TS BOND ANGLE DIHED IMPRP ELECT VDW BOUNDARY MISC KINETIC TOTAL TEMP POTENTIAL TOTALAVG TEMPAVG PRESSURE GPRESSURE VOLUME PRESSAVG GPRESSAVG
ENERGY: 0 6.2943 15.3827 7.7617 0.0000 -11094.8214 1433.5458 0.0000 0.0000 1844.6745 -7787.1624 313.0273 -9631.8370 -7787.1624 313.0273 35.6073 128.3016 30046.3654 35.6073 128.3016
ENERGY: 300000 7.1609 16.0381 5.4906 0.0000 -11135.5008 1452.7095 0.0000 0.0000 1781.6834 -7872.4184 302.3382 -9654.1018 -7870.0228 303.0294 138.7802 186.4324 30303.7478 4.4475 92.4002
ENERGY: 600000 3.1684 12.8189 3.6132 0.0000 -11255.4790 1587.9153 0.0000 0.0000 1761.3131 -7886.6500 298.8815 -9647.9631 -7897.9819 301.1928 1170.9272 1229.6821 30189.1266 225.6728 300.5735
ENERGY: 900000 5.0031 20.6933 3.4153 0.0000 -11188.9873 1468.9174 0.0000 0.0000 1755.0495 -7935.9087 297.8186 -9690.9582 -7908.7128 299.3073 110.5744 146.4804 30016.2327 100.9387 169.4185
ENERGY: 1200000 9.1846 25.6700 5.1547 0.0000 -11249.4542 1489.2974 0.0000 0.0000 1774.0736 -7946.0739 301.0469 -9720.1475 -7904.3684 300.2344 399.9728 384.8817 30065.3604 154.0822 213.5259
ENERGY: 1500000 8.3412 18.1629 4.1346 0.0000 -10896.8436 1306.4368 0.0000 0.0000 1733.9238 -7825.8443 294.2337 -9559.7681 -7898.6914 299.6633 -799.8200 -702.3168 30521.3435 111.2263 175.8062
TCL: Running FEP window   8: Lambda1 0.35   Lambda2 0.39999999999999997 [dLambda 0.04999999999999999]
TCL: Setting parameter firsttimestep to 0
TCL: Setting parameter alchLambda to 0.35
Info: NONBONDED TABLE R-SQUARED SPACING: 0.0625
Info: NONBONDED TABLE SIZE: 705 POINTS
TCL: Setting parameter alchLambda2 to 0.39999999999999997
Info: NONBONDED TABLE R-SQUARED SPACING: 0.0625
Info: NONBONDED TABLE SIZE: 705 POINTS
TCL: Running for 1500000 steps
ETITLE: TS BOND ANGLE DIHED IMPRP ELECT VDW BOUNDARY MISC KINETIC TOTAL TEMP POTENTIAL TOTALAVG TEMPAVG PRESSURE GPRESSURE VOLUME PRESSAVG GPRESSAVG
ENERGY: 0 8.3412 18.1629 4.1346 0.0000 -10896.8426 1305.6499 0.0000 0.0000 1733.0704 -7827.4837 294.0889 -9560.5540 -7827.4837 294.0889 -774.3612 -699.3287 30521.3435 -774.3612 -699.3287
ENERGY: 300000 9.8784 17.6625 4.3614 0.0000 -11154.7654 1480.2501 0.0000 0.0000 1763.1326 -7879.4804 299.1903 -9642.6130 -7859.2896 297.1082 479.7436 522.7846 30136.3670 147.2846 213.6775
ENERGY: 600000 6.6971 11.0719 6.5681 0.0000 -11119.7090 1445.1801 0.0000 0.0000 1788.8171 -7861.3748 303.5487 -9650.1919 -7855.3033 299.6733 348.5957 421.1341 30039.1073 64.1139 130.4511
ENERGY: 900000 8.4148 11.4245 6.5305 0.0000 -11173.8882 1461.2452 0.0000 0.0000 1782.9658 -7903.3075 302.5558 -9686.2733 -7875.3173 299.4884 -74.0394 -13.7634 30485.1638 -15.8175 48.1296
ENERGY: 1200000 10.3811 18.0021 2.3388 0.0000 -11146.8100 1442.6346 0.0000 0.0000 1801.8773 -7871.5761 305.7649 -9673.4534 -7873.7963 299.6734 -116.2365 -71.2998 30350.7051 -64.7154 -5.3377
ENERGY: 1500000 5.5782 18.4982 5.6550 0.0000 -11215.6453 1489.8639 0.0000 0.0000 1755.0632 -7940.9868 297.8209 -9696.0500 -7878.7399 299.1918 86.2890 149.7408 30357.6761 -61.3251 -3.6053
TCL: Running FEP window   9: Lambda1 0.39999999999999997 Lambda2 0.44999999999999996 [dLambda 0.04999999999999999]
TCL: Setting parameter firsttimestep to 0
TCL: Setting parameter alchLambda to 0.39999999999999997
Info: NONBONDED TABLE R-SQUARED SPACING: 0.0625
Info: NONBONDED TABLE SIZE: 705 POINTS
TCL: Setting parameter alchLambda2 to 0.44999999999999996
Info: NONBONDED TABLE R-SQUARED SPACING: 0.0625
Info: NONBONDED TABLE SIZE: 705 POINTS
TCL: Running for 1500000 steps
ETITLE: TS BOND ANGLE DIHED IMPRP ELECT VDW BOUNDARY MISC KINETIC TOTAL TEMP POTENTIAL TOTALAVG TEMPAVG PRESSURE GPRESSURE VOLUME PRESSAVG GPRESSAVG
ENERGY: 0 5.5782 18.4982 5.6550 0.0000 -11215.6456 1489.9939 0.0000 0.0000 1754.1744 -7941.7459 297.6701 -9695.9203 -7941.7459 297.6701 83.3910 162.6086 30357.6761 83.3910 162.6086
ENERGY: 300000 3.4899 25.7251 3.7050 0.0000 -11162.8984 1472.7101 0.0000 0.0000 1760.4106 -7896.8576 298.7283 -9657.2682 -7886.8594 297.8712 63.7281 125.0290 30617.8042 -156.1868 -104.2228
ENERGY: 600000 6.7007 18.2452 9.4326 0.0000 -11181.2499 1432.6767 0.0000 0.0000 1768.1293 -7946.0654 300.0381 -9714.1947 -7896.3189 297.9471 -253.6348 -188.4481 29924.5970 -80.1165 -32.7165
ENERGY: 900000 7.8424 21.4136 11.1991 0.0000 -11170.2783 1505.3812 0.0000 0.0000 1749.1650 -7875.2770 296.8201 -9624.4420 -7892.0275 297.9454 512.1714 609.9323 30339.9858 -57.9577 9.9160
ENERGY: 1200000 3.4413 12.7479 5.7938 0.0000 -11205.5956 1587.1796 0.0000 0.0000 1818.7004 -7777.7326 308.6197 -9596.4330 -7887.0354 299.5031 1498.4957 1565.2947 29953.9413 89.1612 146.5490
ENERGY: 1500000 4.3280 10.8325 6.5179 0.0000 -11139.0052 1466.7858 0.0000 0.0000 1785.7695 -7864.7714 303.0316 -9650.5409 -7895.5694 299.6166 114.5731 192.4752 30403.8260 52.1965 119.3725
TCL: Running FEP window  10: Lambda1 0.44999999999999996 Lambda2 0.49999999999999994 [dLambda 0.04999999999999999]
TCL: Setting parameter firsttimestep to 0
TCL: Setting parameter alchLambda to 0.44999999999999996
Info: NONBONDED TABLE R-SQUARED SPACING: 0.0625
Info: NONBONDED TABLE SIZE: 705 POINTS
TCL: Setting parameter alchLambda2 to 0.49999999999999994
Info: NONBONDED TABLE R-SQUARED SPACING: 0.0625
Info: NONBONDED TABLE SIZE: 705 POINTS
TCL: Running for 1500000 steps
ETITLE: TS BOND ANGLE DIHED IMPRP ELECT VDW BOUNDARY MISC KINETIC TOTAL TEMP POTENTIAL TOTALAVG TEMPAVG PRESSURE GPRESSURE VOLUME PRESSAVG GPRESSAVG
ENERGY: 0 4.3280 10.8325 6.5179 0.0000 -11139.0060 1466.5933 0.0000 0.0000 1784.8781 -7865.8560 302.8803 -9650.7341 -7865.8560 302.8803 114.8313 199.8070 30403.8260 114.8313 199.8070
ENERGY: 300000 11.8695 14.5230 2.0145 0.0000 -11043.0623 1420.6963 0.0000 0.0000 1763.1787 -7830.7804 299.1981 -9593.9591 -7855.3697 299.9795 148.4655 318.3115 30585.6630 111.6979 208.0489
ENERGY: 600000 5.0249 20.2274 9.7358 0.0000 -11074.8708 1406.4279 0.0000 0.0000 1725.6427 -7907.8120 292.8285 -9633.4548 -7883.7757 299.0283 -317.7296 -226.4288 30351.5312 31.2394 136.2367
ENERGY: 900000 2.9080 16.1563 6.5239 0.0000 -11245.2175 1546.0343 0.0000 0.0000 1761.3961 -7912.1989 298.8956 -9673.5950 -7875.7852 299.1854 591.3619 635.7059 30347.3477 118.3086 210.5434
ENERGY: 1200000 7.2945 16.6689 5.1893 0.0000 -11140.3214 1452.3431 0.0000 0.0000 1770.6299 -7888.1957 300.4625 -9658.8257 -7873.9130 299.5045 192.3698 215.2124 30049.8973 155.1326 238.0024
ENERGY: 1500000 7.5331 13.4188 3.8555 0.0000 -11050.7456 1430.1357 0.0000 0.0000 1758.9231 -7836.8795 298.4759 -9595.8026 -7871.6107 299.8703 222.9046 277.3815 30555.5580 67.2126 145.1465
TCL: Running FEP window  11: Lambda1 0.49999999999999994 Lambda2 0.5499999999999999 [dLambda 0.04999999999999999]
TCL: Setting parameter firsttimestep to 0
TCL: Setting parameter alchLambda to 0.49999999999999994
Info: NONBONDED TABLE R-SQUARED SPACING: 0.0625
Info: NONBONDED TABLE SIZE: 705 POINTS
TCL: Setting parameter alchLambda2 to 0.5499999999999999
Info: NONBONDED TABLE R-SQUARED SPACING: 0.0625
Info: NONBONDED TABLE SIZE: 705 POINTS
TCL: Running for 1500000 steps
ETITLE: TS BOND ANGLE DIHED IMPRP ELECT VDW BOUNDARY MISC KINETIC TOTAL TEMP POTENTIAL TOTALAVG TEMPAVG PRESSURE GPRESSURE VOLUME PRESSAVG GPRESSAVG
ENERGY: 0 7.5331 13.4188 3.8555 0.0000 -11050.7459 1429.9435 0.0000 0.0000 1758.0550 -7837.9401 298.3286 -9595.9951 -7837.9401 298.3286 202.5474 286.6131 30555.5580 202.5474 286.6131
ENERGY: 300000 6.7862 11.4707 4.0339 0.0000 -11065.9112 1420.0544 0.0000 0.0000 1744.3807 -7879.1853 296.0082 -9623.5660 -7838.3511 299.8461 114.0291 193.2781 30366.2180 -167.9679 -114.3202
ENERGY: 600000 4.3880 13.2467 4.0667 0.0000 -11148.0633 1456.7350 0.0000 0.0000 1768.0553 -7901.5717 300.0256 -9669.6270 -7869.4489 299.8156 5.5347 83.5030 30736.0829 -82.7144 -30.5368
ENERGY: 900000 4.1152 17.4507 4.1343 0.0000 -11260.7173 1573.6876 0.0000 0.0000 1755.9308 -7905.3986 297.9682 -9661.3294 -7884.2814 299.4337 1448.8681 1443.9789 29720.1531 83.9975 134.2415
ENERGY: 1200000 7.2724 17.7763 4.7849 0.0000 -10978.6649 1359.3635 0.0000 0.0000 1780.1111 -7809.3568 302.0714 -9589.4678 -7882.7776 300.0283 -427.7570 -433.5059 30686.2178 -3.9210 44.1800
ENERGY: 1500000 3.4249 11.7876 5.2685 0.0000 -11089.3391 1432.2434 0.0000 0.0000 1754.2933 -7882.3213 297.6903 -9636.6146 -7885.1719 299.3901 -114.4186 -92.7341 30570.3012 25.5477 73.2001
TCL: Running FEP window  12: Lambda1 0.5499999999999999 Lambda2 0.6    [dLambda 0.050000000000000044]
TCL: Setting parameter firsttimestep to 0
TCL: Setting parameter alchLambda to 0.5499999999999999
Info: NONBONDED TABLE R-SQUARED SPACING: 0.0625
Info: NONBONDED TABLE SIZE: 705 POINTS
TCL: Setting parameter alchLambda2 to 0.6
Info: NONBONDED TABLE R-SQUARED SPACING: 0.0625
Info: NONBONDED TABLE SIZE: 705 POINTS
TCL: Running for 1500000 steps
ETITLE: TS BOND ANGLE DIHED IMPRP ELECT VDW BOUNDARY MISC KINETIC TOTAL TEMP POTENTIAL TOTALAVG TEMPAVG PRESSURE GPRESSURE VOLUME PRESSAVG GPRESSAVG
ENERGY: 0 3.4249 11.7876 5.2685 0.0000 -11089.8092 1431.9613 0.0000 0.0000 1753.4404 -7883.9265 297.5456 -9637.3670 -7883.9265 297.5456 -167.3945 -84.2237 30570.3012 -167.3945 -84.2237
ENERGY: 300000 6.3797 11.4612 3.6193 0.0000 -11212.1208 1518.8863 0.0000 0.0000 1811.5200 -7860.2543 307.4012 -9671.7743 -7869.5122 301.3370 611.2358 682.8804 30279.5564 261.2142 326.3986
ENERGY: 600000 4.6185 17.7009 3.9474 0.0000 -11195.0469 1497.8868 0.0000 0.0000 1831.3159 -7839.5774 310.7604 -9670.8933 -7878.1890 303.0218 533.8441 612.1369 30130.8630 132.4017 203.7772
ENERGY: 900000 6.8494 14.1305 6.8256 0.0000 -11111.7899 1451.5471 0.0000 0.0000 1770.1009 -7862.3365 300.3727 -9632.4374 -7869.5061 302.3660 295.8942 361.1752 30311.5847 53.4072 125.1067
ENERGY: 1200000 4.6192 13.6676 4.1135 0.0000 -11142.1835 1456.7149 0.0000 0.0000 1784.5813 -7878.4871 302.8299 -9663.0684 -7863.6477 303.2759 91.0724 197.8213 30448.2571 94.7410 164.3297
ENERGY: 1500000 3.0811 16.0429 1.6841 0.0000 -11201.8628 1490.8301 0.0000 0.0000 1765.0149 -7925.2097 299.5097 -9690.2246 -7863.1338 302.8099 319.9838 350.9829 30250.1963 185.9689 249.3398
TCL: Running FEP window  13: Lambda1 0.6    Lambda2 0.65   [dLambda 0.050000000000000044]
TCL: Setting parameter firsttimestep to 0
TCL: Setting parameter alchLambda to 0.6
Info: NONBONDED TABLE R-SQUARED SPACING: 0.0625
Info: NONBONDED TABLE SIZE: 705 POINTS
TCL: Setting parameter alchLambda2 to 0.65
Info: NONBONDED TABLE R-SQUARED SPACING: 0.0625
Info: NONBONDED TABLE SIZE: 705 POINTS
TCL: Running for 1500000 steps
ETITLE: TS BOND ANGLE DIHED IMPRP ELECT VDW BOUNDARY MISC KINETIC TOTAL TEMP POTENTIAL TOTALAVG TEMPAVG PRESSURE GPRESSURE VOLUME PRESSAVG GPRESSAVG
ENERGY: 0 3.0811 16.0429 1.6841 0.0000 -11201.2393 1490.7374 0.0000 0.0000 1764.1694 -7925.5244 299.3662 -9689.6937 -7925.5244 299.3662 284.6380 364.9186 30250.1963 284.6380 364.9186
ENERGY: 300000 10.0184 19.2570 6.2323 0.0000 -11152.1702 1426.1380 0.0000 0.0000 1770.3670 -7920.1575 300.4179 -9690.5245 -7896.2126 299.9769 -141.7601 -51.8519 30491.1715 339.2009 405.4111
ENERGY: 600000 9.8579 8.8713 6.9519 0.0000 -11158.6798 1465.3884 0.0000 0.0000 1741.7701 -7925.8402 295.5652 -9667.6103 -7901.6010 299.9055 612.2679 628.0034 30132.0945 259.2395 325.7869
ENERGY: 900000 10.1301 17.9978 3.3143 0.0000 -11110.6871 1416.9585 0.0000 0.0000 1740.5815 -7921.7049 295.3635 -9662.2864 -7893.3742 300.6456 -34.7260 25.3271 30580.0874 166.0557 238.9407
ENERGY: 1200000 6.8361 18.2262 1.6413 0.0000 -11090.7016 1460.2585 0.0000 0.0000 1799.7587 -7803.9808 305.4054 -9603.7395 -7893.1523 300.5032 249.5709 301.2702 30386.7058 176.4489 246.2671
ENERGY: 1500000 3.0785 16.5378 4.0790 0.0000 -11171.0642 1523.6501 0.0000 0.0000 1727.3316 -7896.3872 293.1151 -9623.7188 -7892.4024 300.1788 666.1513 739.1375 30731.0147 189.0777 254.9336
TCL: Running FEP window  14: Lambda1 0.65   Lambda2 0.7000000000000001 [dLambda 0.050000000000000044]
TCL: Setting parameter firsttimestep to 0
TCL: Setting parameter alchLambda to 0.65
Info: NONBONDED TABLE R-SQUARED SPACING: 0.0625
Info: NONBONDED TABLE SIZE: 705 POINTS
TCL: Setting parameter alchLambda2 to 0.7000000000000001
Info: NONBONDED TABLE R-SQUARED SPACING: 0.0625
Info: NONBONDED TABLE SIZE: 705 POINTS
TCL: Running for 1500000 steps
ETITLE: TS BOND ANGLE DIHED IMPRP ELECT VDW BOUNDARY MISC KINETIC TOTAL TEMP POTENTIAL TOTALAVG TEMPAVG PRESSURE GPRESSURE VOLUME PRESSAVG GPRESSAVG
ENERGY: 0 3.0785 16.5378 4.0790 0.0000 -11172.8499 1524.2244 0.0000 0.0000 1726.4403 -7898.4900 292.9638 -9624.9303 -7898.4900 292.9638 684.8244 751.4940 30731.0147 684.8244 751.4940
ENERGY: 300000 7.0274 12.2561 4.6015 0.0000 -11166.4576 1413.7646 0.0000 0.0000 1773.9575 -7954.8506 301.0272 -9728.8081 -7901.6230 299.8320 -465.8639 -405.4391 30586.7981 -188.3508 -143.2083
ENERGY: 600000 6.3904 11.3925 2.7393 0.0000 -11275.9916 1487.7272 0.0000 0.0000 1759.0932 -8008.6490 298.5048 -9767.7422 -7913.2006 301.2052 -183.0579 6.1281 30466.8460 -294.0123 -224.6287
ENERGY: 900000 4.7191 14.8065 5.4242 0.0000 -10994.0031 1381.2715 0.0000 0.0000 1694.2816 -7893.5002 287.5067 -9587.7818 -7899.7290 299.6364 -264.2168 -149.2810 30082.8852 -171.8801 -100.8829
ENERGY: 1200000 8.3926 11.1748 5.3251 0.0000 -11247.8858 1499.6913 0.0000 0.0000 1762.3877 -7960.9142 299.0638 -9723.3020 -7898.2726 300.0494 605.7381 646.2444 30043.1555 -151.3668 -88.6643
ENERGY: 1500000 6.9842 17.1568 6.4423 0.0000 -11155.8185 1476.1029 0.0000 0.0000 1758.1314 -7891.0008 298.3416 -9649.1322 -7902.5125 299.5468 96.4678 156.7245 30499.9168 -74.5309 -13.6996
TCL: Running FEP window  15: Lambda1 0.7000000000000001 Lambda2 0.7500000000000001 [dLambda 0.050000000000000044]
TCL: Setting parameter firsttimestep to 0
TCL: Setting parameter alchLambda to 0.7000000000000001
Info: NONBONDED TABLE R-SQUARED SPACING: 0.0625
Info: NONBONDED TABLE SIZE: 705 POINTS
TCL: Setting parameter alchLambda2 to 0.7500000000000001
Info: NONBONDED TABLE R-SQUARED SPACING: 0.0625
Info: NONBONDED TABLE SIZE: 705 POINTS
TCL: Running for 1500000 steps
ETITLE: TS BOND ANGLE DIHED IMPRP ELECT VDW BOUNDARY MISC KINETIC TOTAL TEMP POTENTIAL TOTALAVG TEMPAVG PRESSURE GPRESSURE VOLUME PRESSAVG GPRESSAVG
ENERGY: 0 6.9842 17.1568 6.4423 0.0000 -11156.8511 1477.6961 0.0000 0.0000 1757.2496 -7891.3220 298.1920 -9648.5716 -7891.3220 298.1920 106.4577 191.9633 30499.9168 106.4577 191.9633
ENERGY: 300000 8.4363 8.6663 2.6547 0.0000 -11114.7012 1419.7582 0.0000 0.0000 1790.7028 -7884.4829 303.8687 -9675.1857 -7868.2497 299.6013 -64.5369 -37.8944 30416.1944 387.8024 475.4922
ENERGY: 600000 4.7492 16.6302 7.2135 0.0000 -11071.6597 1383.6870 0.0000 0.0000 1761.6771 -7897.7027 298.9433 -9659.3798 -7875.9759 299.1872 -569.1177 -525.2216 30574.8254 -98.3909 -15.3621
ENERGY: 900000 5.1090 14.5705 5.5171 0.0000 -11005.2800 1371.7794 0.0000 0.0000 1756.6386 -7851.6655 298.0883 -9608.3041 -7880.9972 298.7751 -278.5917 -222.7305 30231.5105 -108.8392 -24.0398
ENERGY: 1200000 8.9825 15.9424 3.9128 0.0000 -10995.5191 1370.2708 0.0000 0.0000 1722.4141 -7873.9965 292.2806 -9596.4106 -7883.0266 298.8770 -343.5310 -294.8150 30584.9421 -103.3940 -19.6280
ENERGY: 1500000 6.1579 20.7389 2.2370 0.0000 -11008.2996 1387.7564 0.0000 0.0000 1790.5916 -7800.8177 303.8498 -9591.4093 -7877.4738 299.0169 -496.2246 -441.9637 30915.8890 -151.1124 -75.1382
TCL: Running FEP window  16: Lambda1 0.7500000000000001 Lambda2 0.8000000000000002 [dLambda 0.050000000000000044]
TCL: Setting parameter firsttimestep to 0
TCL: Setting parameter alchLambda to 0.7500000000000001
Info: NONBONDED TABLE R-SQUARED SPACING: 0.0625
Info: NONBONDED TABLE SIZE: 705 POINTS
TCL: Setting parameter alchLambda2 to 0.8000000000000002
Info: NONBONDED TABLE R-SQUARED SPACING: 0.0625
Info: NONBONDED TABLE SIZE: 705 POINTS
TCL: Running for 1500000 steps
ETITLE: TS BOND ANGLE DIHED IMPRP ELECT VDW BOUNDARY MISC KINETIC TOTAL TEMP POTENTIAL TOTALAVG TEMPAVG PRESSURE GPRESSURE VOLUME PRESSAVG GPRESSAVG
ENERGY: 0 6.1579 20.7389 2.2370 0.0000 -11009.3404 1386.9591 0.0000 0.0000 1789.7549 -7803.4925 303.7079 -9593.2474 -7803.4925 303.7079 -521.4193 -439.9439 30915.8890 -521.4193 -439.9439
ENERGY: 300000 6.7178 14.8901 4.5527 0.0000 -11184.6160 1420.4703 0.0000 0.0000 1768.8107 -7969.1744 300.1538 -9737.9850 -7904.0535 302.7223 -649.6017 -609.4431 30734.9692 -707.0477 -638.6822
ENERGY: 600000 3.1689 18.6010 9.5779 0.0000 -11136.9175 1425.6071 0.0000 0.0000 1774.6308 -7905.3318 301.1414 -9679.9626 -7914.5318 301.4258 -81.0967 41.1940 29988.8353 -421.8819 -345.3771
ENERGY: 900000 4.9989 13.8579 4.2173 0.0000 -11175.3636 1430.2636 0.0000 0.0000 1833.4314 -7888.5944 311.1194 -9722.0258 -7906.9726 303.2249 -14.0223 16.4928 30258.4419 -289.5937 -221.6927
ENERGY: 1200000 5.4944 14.2787 4.8224 0.0000 -11193.1240 1408.3940 0.0000 0.0000 1757.8420 -8002.2925 298.2925 -9760.1345 -7915.8428 301.6423 -341.1564 -283.8559 30107.3924 -303.7274 -240.5708
ENERGY: 1500000 7.0836 12.8884 2.5311 0.0000 -11122.8033 1390.1791 0.0000 0.0000 1776.0174 -7934.1038 301.3767 -9710.1211 -7923.0717 300.3493 -555.1278 -474.2327 30703.5487 -278.6224 -215.6228
TCL: Running FEP window  17: Lambda1 0.8000000000000002 Lambda2 0.8500000000000002 [dLambda 0.050000000000000044]
TCL: Setting parameter firsttimestep to 0
TCL: Setting parameter alchLambda to 0.8000000000000002
Info: NONBONDED TABLE R-SQUARED SPACING: 0.0625
Info: NONBONDED TABLE SIZE: 705 POINTS
TCL: Setting parameter alchLambda2 to 0.8500000000000002
Info: NONBONDED TABLE R-SQUARED SPACING: 0.0625
Info: NONBONDED TABLE SIZE: 705 POINTS
TCL: Running for 1500000 steps
ETITLE: TS BOND ANGLE DIHED IMPRP ELECT VDW BOUNDARY MISC KINETIC TOTAL TEMP POTENTIAL TOTALAVG TEMPAVG PRESSURE GPRESSURE VOLUME PRESSAVG GPRESSAVG
ENERGY: 0 7.0836 12.8884 2.5311 0.0000 -11124.4689 1390.9088 0.0000 0.0000 1775.1534 -7935.9036 301.2301 -9711.0570 -7935.9036 301.2301 -535.2007 -455.1074 30703.5487 -535.2007 -455.1074
ENERGY: 300000 6.1837 12.6056 7.4703 0.0000 -10972.4594 1327.3209 0.0000 0.0000 1755.4270 -7863.4519 297.8827 -9618.8789 -7921.1129 297.0222 -651.3699 -621.0219 30365.3637 -492.4927 -462.1623
ENERGY: 600000 5.9571 21.7887 5.8341 0.0000 -11152.8683 1459.8170 0.0000 0.0000 1795.0304 -7864.4409 304.6031 -9659.4714 -7916.4319 298.6415 483.3615 583.2498 29924.9711 -203.0279 -157.4234
ENERGY: 900000 7.7856 14.9517 1.7743 0.0000 -11153.3888 1441.9874 0.0000 0.0000 1745.6394 -7941.2504 296.2218 -9686.8898 -7928.4324 297.3817 10.2279 88.4628 30474.1953 -178.0076 -127.0852
ENERGY: 1200000 6.1347 17.7110 5.8552 0.0000 -11092.7201 1389.9473 0.0000 0.0000 1754.5604 -7918.5115 297.7356 -9673.0719 -7928.8243 296.9956 -280.9451 -163.6125 30204.9012 -218.3968 -158.2853
ENERGY: 1500000 5.4745 13.3000 4.8806 0.0000 -11081.7643 1399.1485 0.0000 0.0000 1759.5157 -7899.4450 298.5765 -9658.9607 -7932.3991 296.8369 -155.4638 -110.7484 30381.2797 -222.6110 -162.0238
TCL: Running FEP window  18: Lambda1 0.8500000000000002 Lambda2 0.9000000000000002 [dLambda 0.050000000000000044]
TCL: Setting parameter firsttimestep to 0
TCL: Setting parameter alchLambda to 0.8500000000000002
Info: NONBONDED TABLE R-SQUARED SPACING: 0.0625
Info: NONBONDED TABLE SIZE: 705 POINTS
TCL: Setting parameter alchLambda2 to 0.9000000000000002
Info: NONBONDED TABLE R-SQUARED SPACING: 0.0625
Info: NONBONDED TABLE SIZE: 705 POINTS
TCL: Running for 1500000 steps
ETITLE: TS BOND ANGLE DIHED IMPRP ELECT VDW BOUNDARY MISC KINETIC TOTAL TEMP POTENTIAL TOTALAVG TEMPAVG PRESSURE GPRESSURE VOLUME PRESSAVG GPRESSAVG
ENERGY: 0 5.4745 13.3000 4.8806 0.0000 -11083.3973 1398.3106 0.0000 0.0000 1758.6361 -7902.7955 298.4272 -9661.4316 -7902.7955 298.4272 -200.3382 -107.9313 30381.2797 -200.3382 -107.9313
ENERGY: 300000 4.6118 19.1568 6.4967 0.0000 -11077.7041 1369.7072 0.0000 0.0000 1752.0824 -7925.6493 297.3151 -9677.7317 -7919.6734 296.7539 -516.3733 -391.0537 30076.2565 -306.6167 -211.3165
ENERGY: 600000 5.6917 16.0737 5.9359 0.0000 -10994.9966 1409.2137 0.0000 0.0000 1728.0096 -7830.0720 293.2301 -9558.0816 -7909.5917 297.9068 -10.1821 65.1006 30585.9003 -240.8670 -145.2940
ENERGY: 900000 6.2450 15.6952 3.0482 0.0000 -11107.9189 1448.8770 0.0000 0.0000 1767.0280 -7867.0257 299.8513 -9634.0536 -7922.3862 297.9672 466.1371 492.5213 30232.7055 -95.0107 -13.4655
ENERGY: 1200000 3.8048 11.6995 7.0496 0.0000 -11084.9564 1385.3639 0.0000 0.0000 1737.4670 -7939.5717 294.8350 -9677.0386 -7916.8359 298.9611 -346.8428 -245.2851 30247.5747 -188.3487 -110.8015
ENERGY: 1500000 5.0360 15.1416 5.2728 0.0000 -11009.3286 1336.0012 0.0000 0.0000 1800.2439 -7847.6331 305.4878 -9647.8770 -7909.6946 299.2431 -652.0997 -632.4940 30570.5275 -210.6396 -140.4506
TCL: Running FEP window  19: Lambda1 0.9000000000000002 Lambda2 0.9500000000000003 [dLambda 0.050000000000000044]
TCL: Setting parameter firsttimestep to 0
TCL: Setting parameter alchLambda to 0.9000000000000002
Info: NONBONDED TABLE R-SQUARED SPACING: 0.0625
Info: NONBONDED TABLE SIZE: 705 POINTS
TCL: Setting parameter alchLambda2 to 0.9500000000000003
Info: NONBONDED TABLE R-SQUARED SPACING: 0.0625
Info: NONBONDED TABLE SIZE: 705 POINTS
TCL: Running for 1500000 steps
ETITLE: TS BOND ANGLE DIHED IMPRP ELECT VDW BOUNDARY MISC KINETIC TOTAL TEMP POTENTIAL TOTALAVG TEMPAVG PRESSURE GPRESSURE VOLUME PRESSAVG GPRESSAVG
ENERGY: 0 5.0360 15.1416 5.2728 0.0000 -11011.0238 1336.9404 0.0000 0.0000 1799.3765 -7849.2565 305.3406 -9648.6331 -7849.2565 305.3406 -683.9471 -612.2433 30570.5275 -683.9471 -612.2433
ENERGY: 300000 4.6450 15.7820 7.3482 0.0000 -11096.7502 1378.1956 0.0000 0.0000 1731.7029 -7959.0764 293.8569 -9690.7793 -7921.0492 302.8671 -721.8761 -670.7027 30971.7745 -646.5335 -613.2395
ENERGY: 600000 7.1998 14.2652 2.9785 0.0000 -11192.7945 1528.5026 0.0000 0.0000 1773.2357 -7866.6126 300.9047 -9639.8483 -7892.7189 303.3824 1208.1167 1214.1050 30154.3776 -274.1414 -223.7816
ENERGY: 900000 5.6148 12.8110 3.3842 0.0000 -11289.7970 1514.9664 0.0000 0.0000 1781.8754 -7971.1453 302.3708 -9753.0206 -7905.3885 302.7704 838.4244 841.7363 29710.0408 -222.5094 -166.2615
ENERGY: 1200000 4.3960 10.9240 3.0646 0.0000 -11041.1249 1358.1289 0.0000 0.0000 1783.6859 -7880.9255 302.6780 -9664.6114 -7902.2740 303.2085 -735.2386 -658.3076 30838.8605 -223.9164 -168.7628
ENERGY: 1500000 8.9939 14.3370 2.0906 0.0000 -11199.9982 1430.0399 0.0000 0.0000 1761.1584 -7983.3784 298.8552 -9744.5367 -7907.7020 302.3099 -434.7256 -323.2622 30709.6861 -167.0636 -107.8094
TCL: Running FEP window  20: Lambda1 0.9500000000000003 Lambda2 1.0    [dLambda 0.04999999999999971]
TCL: Setting parameter firsttimestep to 0
TCL: Setting parameter alchLambda to 0.9500000000000003
Info: NONBONDED TABLE R-SQUARED SPACING: 0.0625
Info: NONBONDED TABLE SIZE: 705 POINTS
TCL: Setting parameter alchLambda2 to 1.0
Info: NONBONDED TABLE R-SQUARED SPACING: 0.0625
Info: NONBONDED TABLE SIZE: 705 POINTS
TCL: Running for 1500000 steps
ETITLE: TS BOND ANGLE DIHED IMPRP ELECT VDW BOUNDARY MISC KINETIC TOTAL TEMP POTENTIAL TOTALAVG TEMPAVG PRESSURE GPRESSURE VOLUME PRESSAVG GPRESSAVG
ENERGY: 0 8.9939 14.3370 2.0906 0.0000 -11203.3386 1434.1795 0.0000 0.0000 1760.2955 -7983.4420 298.7088 -9743.7375 -7983.4420 298.7088 -340.3947 -257.9678 30709.6861 -340.3947 -257.9678
ENERGY: 300000 4.3498 15.3820 5.3899 0.0000 -11203.1990 1519.5361 0.0000 0.0000 1789.4988 -7869.0425 303.6644 -9658.5413 -7937.0732 301.0430 351.2176 480.8173 30957.8404 11.2586 105.9418
ENERGY: 600000 2.0331 13.7582 1.4087 0.0000 -11141.0215 1398.8482 0.0000 0.0000 1776.8047 -7948.1686 301.5103 -9724.9733 -7926.3921 300.5436 -721.3959 -661.1179 30701.7384 -176.8514 -88.0528
ENERGY: 900000 3.6527 21.6495 4.8841 0.0000 -11189.5399 1457.2230 0.0000 0.0000 1764.5856 -7937.5450 299.4368 -9702.1306 -7924.7187 300.1474 163.4769 201.2339 30379.9522 -187.0971 -107.5176
ENERGY: 1200000 3.4209 10.6375 4.5816 0.0000 -11118.9929 1400.1367 0.0000 0.0000 1781.8628 -7918.3534 302.3686 -9700.2162 -7923.3144 299.7417 -89.2662 -1.1651 29927.1281 -225.3595 -145.8717
ENERGY: 1500000 5.0197 13.7510 5.2675 0.0000 -11237.9838 1491.7154 0.0000 0.0000 1756.9559 -7965.2742 298.1421 -9722.2301 -7917.9438 299.7085 426.6099 525.3793 29881.2375 -176.9959 -96.7309
TCL: Exiting due to exit command.
