Info: SIMULATION PARAMETERS:
Info: TIMESTEP               2
Info: NUMBER OF STEPS        0
Info: STEPS PER CYCLE        10
Info: PERIODIC CELL BASIS 1  29.1827 0 0
Info: PERIODIC CELL BASIS 2  0 35.725 0
Info: PERIODIC CELL BASIS 3  0 0 29.2164
Info: PERIODIC CELL CENTER   0 0 0
Info: WRAPPING WATERS AROUND PERIODIC BOUNDARIES ON OUTPUT.
Info: WRAPPING ALL CLUSTERS AROUND PERIODIC BOUNDARIES ON OUTPUT.
Info: FIRST LDB TIMESTEP     50
Info: LAST LDB TIMESTEP     -1
Info: HOM BACKGROUND SCALING 1
Info: PME BACKGROUND SCALING 1
Info: MIN ATOMS PER PATCH    40
Info: EMPTY PATCH LOAD       40 ATOMS
Info: VELOCITY FILE          mobley_1976156_equil.vel
Info: CENTER OF MASS MOVING INITIALLY? NO
Info: DIELECTRIC             1
Info: EXCLUDE                SCALED ONE-FOUR
Info: 1-4 ELECTROSTATICS SCALED BY 0.833333
Info: MODIFIED 1-4 VDW PARAMETERS WILL BE USED
Info: DCD FILENAME           mobley_1976156_prod.dcd
Info: DCD FREQUENCY          100000
Info: DCD FIRST STEP         100000
Info: DCD FILE WILL CONTAIN UNIT CELL DATA
Info: XST FILENAME           mobley_1976156_prod.xst
Info: XST FREQUENCY          100000
Info: NO VELOCITY DCD OUTPUT
Info: NO FORCE DCD OUTPUT
Info: OUTPUT FILENAME        mobley_1976156_prod
Info: BINARY OUTPUT FILES WILL BE USED
Info: RESTART FILENAME       mobley_1976156_prod.restart
Info: RESTART FREQUENCY      100000
Info: BINARY RESTART FILES WILL BE USED
Info: CUTOFF                 9
Info: PAIRLIST DISTANCE      11
Info: PAIRLIST SHRINK RATE   0.01
Info: PAIRLIST GROW RATE     0.01
Info: PAIRLIST TRIGGER       0.3
Info: PAIRLISTS PER CYCLE    2
Info: PAIRLISTS ENABLED
Info: MARGIN                 2
Info: HYDROGEN GROUP CUTOFF  2.5
Info: PATCH DIMENSION        15.5
Info: ENERGY OUTPUT STEPS    100000
Info: ENERGY EVALUATION STEPS    100000
Info: OUTPUT ENERGY PRECISION 4
Info: CROSSTERM ENERGY INCLUDED IN DIHEDRAL
Info: TIMING OUTPUT STEPS    1000000
Info: PRESSURE OUTPUT STEPS  100000
Info: ALCHEMICAL FEP ON
Info: FEP CURRENT LAMBDA VALUE     1
Info: FEP COMPARISON LAMBDA VALUE  0.95
Info: FEP INTRA-ALCHEMICAL NON-BONDED INTERACTIONS WILL BE RETAINED
Info: FEP INTRA-ALCHEMICAL BONDED INTERACTIONS WILL BE RETAINED
Info: FEP VDW SHIFTING COEFFICIENT 5
Info: FEP ELEC. ACTIVE FOR ANNIHILATED PARTICLES BETWEEN LAMBDA = 0 AND LAMBDA = 0.5
Info: FEP ELEC. ACTIVE FOR EXNIHILATED PARTICLES BETWEEN LAMBDA = 0.5 AND LAMBDA = 1
Info: FEP VDW ACTIVE FOR ANNIHILATED PARTICLES BETWEEN LAMBDA = 0 AND LAMBDA = 1
Info: FEP VDW ACTIVE FOR EXNIHILATED PARTICLES BETWEEN LAMBDA = 0 AND LAMBDA = 1
Info: FEP BOND ACTIVE FOR ANNIHILATED PARTICLES BETWEEN LAMBDA = 1 AND LAMBDA = 1
Info: FEP BOND ACTIVE FOR EXNIHILATED PARTICLES BETWEEN LAMBDA = 0 AND LAMBDA = 0
Info: LANGEVIN DYNAMICS ACTIVE
Info: LANGEVIN TEMPERATURE   300
Info: LANGEVIN USING BBK INTEGRATOR
Info: LANGEVIN DAMPING COEFFICIENT IS 1 INVERSE PS
Info: LANGEVIN DYNAMICS APPLIED TO HYDROGENS
Info: LANGEVIN PISTON PRESSURE CONTROL ACTIVE
Info:        TARGET PRESSURE IS 1.01325 BAR
Info:     OSCILLATION PERIOD IS 50 FS
Info:             DECAY TIME IS 25 FS
Info:     PISTON TEMPERATURE IS 300 K
Info:       PRESSURE CONTROL IS GROUP-BASED
Info:    INITIAL STRAIN RATE IS -0.00029806 -0.00029806 -0.00029806
Info:       CELL FLUCTUATION IS ISOTROPIC
Info: PARTICLE MESH EWALD (PME) ACTIVE
Info: PME TOLERANCE               1e-06
Info: PME EWALD COEFFICIENT       0.348832
Info: PME INTERPOLATION ORDER     4
Info: PME GRID DIMENSIONS         32 36 32
Info: PME MAXIMUM GRID SPACING    1
Info: PME CALCULATION WILL BE PERFORMED ON GPU
Info: FULL ELECTROSTATIC EVALUATION FREQUENCY      2
Info: USING VERLET I (r-RESPA) MTS SCHEME.
Info: C1 SPLITTING OF LONG RANGE ELECTROSTATICS
Info: PLACING ATOMS IN PATCHES BY HYDROGEN GROUPS
Info: RIGID BONDS TO HYDROGEN : ALL
Info:         ERROR TOLERANCE : 1e-08
Info:          MAX ITERATIONS : 100
Info: RIGID WATER USING SETTLE ALGORITHM
Info: RANDOM NUMBER SEED     1744082586
Info: USE HYDROGEN BONDS?    NO
Info: Using AMBER format force field!
Info: AMBER PARM FILE        mobley_1976156.prmtop
Info: COORDINATE PDB         mobley_1976156.pdb
Info: Exclusions will be read from PARM file!
Info: SCNB (VDW SCALING)     2
Info: USING ARITHMETIC MEAN TO COMBINE L-J SIGMA PARAMETERS
Info: BINARY COORDINATES     mobley_1976156_equil.coor
Info: SUMMARY OF PARAMETERS:
Info: 7 BONDS
Info: 8 ANGLES
Info:   8 HARMONIC
Info:   0 COSINE-BASED
Info: 11 DIHEDRAL
Info: 0 IMPROPER
Info: 0 CROSSTERM
Info: 0 VDW
Info: 28 VDW_PAIRS
Info: 0 NBTHOLE_PAIRS
Info: To read alchdata from file: mobley_1976156.pdb
Info: To read alchflag data from column: 5
Info: STRUCTURE SUMMARY:
Info: 2974 ATOMS
Info: 2973 BONDS
Info: 51 ANGLES
Info: 84 DIHEDRALS
Info: 0 IMPROPERS
Info: 0 CROSSTERMS
Info: 3093 EXCLUSIONS
Info: 2964 RIGID BONDS
Info: ALCH: 0 ATOMS TO DISAPPEAR IN FINAL STATE
Info: ALCH: 28 ATOMS TO APPEAR IN FINAL STATE
Info: 5958 DEGREES OF FREEDOM
Info: 992 HYDROGEN GROUPS
Info: 4 ATOMS IN LARGEST HYDROGEN GROUP
Info: 992 MIGRATION GROUPS
Info: 4 ATOMS IN LARGEST MIGRATION GROUP
Info: TOTAL MASS = 17833.9 amu
Info: TOTAL CHARGE = 9.99896e-05 e
Info: MASS DENSITY = 0.972258 g/cm^3
Info: ATOM DENSITY = 0.0976373 atoms/A^3
Info: ADDED 0 IMPLICIT EXCLUSIONS
Info: NONBONDED TABLE R-SQUARED SPACING: 0.0625
Info: NONBONDED TABLE SIZE: 705 POINTS
Info: REMOVING COM VELOCITY 0.30037 -0.0752868 -0.00620826
Info: Use 3D box decompostion in PME FFT.
Info: Updated CUDA force table with 4096 elements.
Info: Updated CUDA LJ table with 7 x 7 elements.
Info: Found 31 unique exclusion lists needing 124 bytes
TCL: Running for 1500000 steps
ETITLE: TS BOND ANGLE DIHED IMPRP ELECT VDW BOUNDARY MISC KINETIC TOTAL TEMP POTENTIAL TOTALAVG TEMPAVG PRESSURE GPRESSURE VOLUME PRESSAVG GPRESSAVG
ENERGY: 0 1.2954 11.3451 6.9682 0.0000 -10734.5645 1412.9984 0.0000 0.0000 1784.2304 -7517.7271 301.3983 -9301.9575 -7517.7271 301.3983 -248.8277 -156.0524 30459.6646 -248.8277 -156.0524
ENERGY: 300000 3.7674 14.6005 5.4796 0.0000 -10704.9932 1444.4509 0.0000 0.0000 1743.1441 -7493.5507 294.4579 -9236.6948 -7503.3381 297.5486 298.6339 305.6531 30873.4019 59.1282 126.8491
ENERGY: 600000 2.7636 12.7508 6.2869 0.0000 -10705.6302 1388.1031 0.0000 0.0000 1819.1139 -7476.6121 307.2909 -9295.7259 -7496.7488 303.0573 -502.8989 -453.8903 30647.6684 144.9729 219.3470
ENERGY: 900000 1.6182 11.1050 6.2052 0.0000 -10874.3036 1459.0774 0.0000 0.0000 1782.8760 -7613.4219 301.1695 -9396.2979 -7513.6018 301.6768 79.9477 146.0024 30352.8541 150.5108 216.6974
ENERGY: 1200000 4.3728 11.1451 4.3288 0.0000 -10678.7381 1390.8892 0.0000 0.0000 1735.1345 -7532.8677 293.1049 -9268.0022 -7519.9914 300.6398 -466.8807 -441.6312 30818.9151 34.5195 90.4022
ENERGY: 1500000 1.0597 15.9892 7.9594 0.0000 -10888.9195 1483.3031 0.0000 0.0000 1793.1542 -7587.4538 302.9058 -9380.6081 -7520.2092 300.7593 167.5526 222.3041 30674.8733 84.3131 139.2231
TCL: Running FEP window   2: Lambda1 0.95   Lambda2 0.8999999999999999 [dLambda -0.050000000000000044]
TCL: Setting parameter firsttimestep to 0
TCL: Setting parameter alchLambda to 0.95
Info: NONBONDED TABLE R-SQUARED SPACING: 0.0625
Info: NONBONDED TABLE SIZE: 705 POINTS
TCL: Setting parameter alchLambda2 to 0.8999999999999999
Info: NONBONDED TABLE R-SQUARED SPACING: 0.0625
Info: NONBONDED TABLE SIZE: 705 POINTS
TCL: Running for 1500000 steps
ETITLE: TS BOND ANGLE DIHED IMPRP ELECT VDW BOUNDARY MISC KINETIC TOTAL TEMP POTENTIAL TOTALAVG TEMPAVG PRESSURE GPRESSURE VOLUME PRESSAVG GPRESSAVG
ENERGY: 0 1.0597 15.9892 7.9594 0.0000 -10887.7792 1483.2611 0.0000 0.0000 1792.2858 -7587.2240 302.7591 -9379.5097 -7587.2240 302.7591 119.0954 206.5729 30674.8733 119.0954 206.5729
ENERGY: 300000 1.2025 12.5276 4.7060 0.0000 -10814.5206 1495.6578 0.0000 0.0000 1808.4048 -7492.0218 305.4819 -9300.4266 -7522.4119 298.2440 512.1275 641.4011 30177.0209 204.4454 290.0721
ENERGY: 600000 3.0819 13.8468 7.9591 0.0000 -10633.0519 1409.2722 0.0000 0.0000 1771.5994 -7427.2926 299.2646 -9198.8919 -7510.7710 298.2682 215.8122 357.4848 30011.9028 118.6942 210.3808
ENERGY: 900000 5.1908 13.8840 6.9629 0.0000 -10694.1589 1406.3733 0.0000 0.0000 1813.4106 -7448.3373 306.3275 -9261.7479 -7504.5568 299.7620 -272.0547 -216.2503 30768.4451 -52.9456 34.5002
ENERGY: 1200000 2.1907 11.3978 7.1916 0.0000 -10735.8451 1453.5378 0.0000 0.0000 1770.8812 -7490.6461 299.1433 -9261.5272 -7505.7881 299.3184 135.8966 195.6822 30509.8897 -62.5580 17.6131
ENERGY: 1500000 2.3772 10.3884 4.0656 0.0000 -10713.2941 1465.0492 0.0000 0.0000 1736.7033 -7494.7104 293.3699 -9231.4137 -7507.4831 298.2516 408.8915 480.1091 30540.1549 -70.3947 11.2960
TCL: Running FEP window   3: Lambda1 0.8999999999999999 Lambda2 0.8499999999999999 [dLambda -0.050000000000000044]
TCL: Setting parameter firsttimestep to 0
TCL: Setting parameter alchLambda to 0.8999999999999999
Info: NONBONDED TABLE R-SQUARED SPACING: 0.0625
Info: NONBONDED TABLE SIZE: 705 POINTS
TCL: Setting parameter alchLambda2 to 0.8499999999999999
Info: NONBONDED TABLE R-SQUARED SPACING: 0.0625
Info: NONBONDED TABLE SIZE: 705 POINTS
TCL: Running for 1500000 steps
ETITLE: TS BOND ANGLE DIHED IMPRP ELECT VDW BOUNDARY MISC KINETIC TOTAL TEMP POTENTIAL TOTALAVG TEMPAVG PRESSURE GPRESSURE VOLUME PRESSAVG GPRESSAVG
ENERGY: 0 2.3772 10.3884 4.0656 0.0000 -10712.5884 1464.2007 0.0000 0.0000 1735.8063 -7495.7502 293.2184 -9231.5566 -7495.7502 293.2184 364.5022 449.6534 30540.1549 364.5022 449.6534
ENERGY: 300000 1.3273 13.2455 6.3455 0.0000 -10609.0792 1374.9915 0.0000 0.0000 1833.7283 -7379.4411 309.7597 -9213.1694 -7490.5668 299.0136 -226.6870 -85.7270 30525.7270 -142.4203 -61.6171
ENERGY: 600000 3.6238 13.6192 8.3677 0.0000 -10708.5333 1412.9170 0.0000 0.0000 1802.2206 -7467.7849 304.4373 -9270.0056 -7506.6920 297.5534 -134.7811 -92.7339 30861.4638 -148.4325 -79.3041
ENERGY: 900000 2.9798 8.1136 5.6015 0.0000 -10675.0920 1417.2223 0.0000 0.0000 1770.4188 -7470.7559 299.0652 -9241.1748 -7494.9639 298.4057 -93.2150 -8.7287 30401.3194 -192.4156 -124.4253
ENERGY: 1200000 1.5709 10.7279 7.0881 0.0000 -10728.1590 1436.4399 0.0000 0.0000 1784.8850 -7487.4471 301.5089 -9272.3321 -7493.2305 297.5315 -120.1921 -17.5435 30789.1863 -257.2627 -177.3608
ENERGY: 1500000 4.1286 17.4100 5.8950 0.0000 -10635.1184 1371.9471 0.0000 0.0000 1830.9771 -7404.7605 309.2949 -9235.7377 -7483.0891 298.3557 -512.4679 -489.5862 30714.7094 -259.3915 -187.6548
TCL: Running FEP window   4: Lambda1 0.8499999999999999 Lambda2 0.7999999999999998 [dLambda -0.050000000000000044]
TCL: Setting parameter firsttimestep to 0
TCL: Setting parameter alchLambda to 0.8499999999999999
Info: NONBONDED TABLE R-SQUARED SPACING: 0.0625
Info: NONBONDED TABLE SIZE: 705 POINTS
TCL: Setting parameter alchLambda2 to 0.7999999999999998
Info: NONBONDED TABLE R-SQUARED SPACING: 0.0625
Info: NONBONDED TABLE SIZE: 705 POINTS
TCL: Running for 1500000 steps
ETITLE: TS BOND ANGLE DIHED IMPRP ELECT VDW BOUNDARY MISC KINETIC TOTAL TEMP POTENTIAL TOTALAVG TEMPAVG PRESSURE GPRESSURE VOLUME PRESSAVG GPRESSAVG
ENERGY: 0 4.1286 17.4100 5.8950 0.0000 -10633.7333 1372.4195 0.0000 0.0000 1830.0845 -7403.7957 309.1442 -9233.8802 -7403.7957 309.1442 -583.2172 -500.3207 30714.7094 -583.2172 -500.3207
ENERGY: 300000 2.5444 12.9348 6.8106 0.0000 -10662.2958 1407.0762 0.0000 0.0000 1847.9091 -7385.0206 312.1551 -9232.9297 -7453.1422 303.2303 121.5715 178.0646 30071.1270 -475.5989 -413.6769
ENERGY: 600000 2.0955 12.9486 4.7627 0.0000 -10681.3004 1438.3844 0.0000 0.0000 1737.5096 -7485.5997 293.5061 -9223.1093 -7481.9401 300.7838 -110.6201 5.8929 30980.3119 -341.6528 -277.9402
ENERGY: 900000 3.4723 9.3802 6.6990 0.0000 -10747.3347 1428.3745 0.0000 0.0000 1697.4717 -7601.9370 286.7427 -9299.4087 -7491.8958 299.6568 -306.8041 -208.6138 30399.4669 -245.1025 -184.8314
ENERGY: 1200000 1.5656 13.7622 6.7833 0.0000 -10718.9159 1454.4411 0.0000 0.0000 1787.8016 -7454.5622 302.0016 -9242.3638 -7479.4306 300.1488 330.3062 449.2415 30509.1903 -223.5368 -163.0467
ENERGY: 1500000 1.6440 13.5220 5.2721 0.0000 -10678.4724 1379.3321 0.0000 0.0000 1842.9273 -7435.7750 311.3136 -9278.7023 -7484.3148 300.3285 -299.8687 -297.1621 30367.0163 -232.1702 -172.0282
TCL: Running FEP window   5: Lambda1 0.7999999999999998 Lambda2 0.7499999999999998 [dLambda -0.050000000000000044]
TCL: Setting parameter firsttimestep to 0
TCL: Setting parameter alchLambda to 0.7999999999999998
Info: NONBONDED TABLE R-SQUARED SPACING: 0.0625
Info: NONBONDED TABLE SIZE: 705 POINTS
TCL: Setting parameter alchLambda2 to 0.7499999999999998
Info: NONBONDED TABLE R-SQUARED SPACING: 0.0625
Info: NONBONDED TABLE SIZE: 705 POINTS
TCL: Running for 1500000 steps
ETITLE: TS BOND ANGLE DIHED IMPRP ELECT VDW BOUNDARY MISC KINETIC TOTAL TEMP POTENTIAL TOTALAVG TEMPAVG PRESSURE GPRESSURE VOLUME PRESSAVG GPRESSAVG
ENERGY: 0 1.6440 13.5219 5.2721 0.0000 -10677.5373 1379.0777 0.0000 0.0000 1842.0296 -7435.9920 311.1619 -9278.0216 -7435.9920 311.1619 -406.9659 -312.3352 30367.0163 -406.9659 -312.3352
ENERGY: 300000 1.9947 9.8946 6.3354 0.0000 -10644.5132 1369.6921 0.0000 0.0000 1806.7009 -7449.8956 305.1941 -9256.5965 -7422.5065 305.5634 -405.5953 -328.9911 30577.1404 -235.8388 -159.7926
ENERGY: 600000 3.2194 11.6315 5.8174 0.0000 -10626.0812 1371.7454 0.0000 0.0000 1789.1976 -7444.4699 302.2374 -9233.6675 -7433.0826 304.4189 -356.6603 -335.7731 30828.2950 -235.9863 -161.9104
ENERGY: 900000 3.5457 11.8641 7.3160 0.0000 -10766.1443 1421.0184 0.0000 0.0000 1782.0365 -7540.3636 301.0277 -9322.4002 -7464.8843 302.2485 -160.6288 -122.3163 30351.7783 -237.7597 -165.6498
ENERGY: 1200000 2.5585 11.0539 5.9529 0.0000 -10780.4988 1473.4975 0.0000 0.0000 1726.4267 -7561.0093 291.6339 -9287.4360 -7469.9216 301.0483 368.4510 373.0063 30428.5912 -147.9252 -83.2674
ENERGY: 1500000 1.4374 10.5517 4.9510 0.0000 -10798.5213 1527.0045 0.0000 0.0000 1773.5230 -7481.0537 299.5896 -9254.5767 -7472.3016 301.2090 682.6381 748.5620 30422.0832 -43.4213 23.9462
TCL: Running FEP window   6: Lambda1 0.7499999999999998 Lambda2 0.6999999999999997 [dLambda -0.050000000000000044]
TCL: Setting parameter firsttimestep to 0
TCL: Setting parameter alchLambda to 0.7499999999999998
Info: NONBONDED TABLE R-SQUARED SPACING: 0.0625
Info: NONBONDED TABLE SIZE: 705 POINTS
TCL: Setting parameter alchLambda2 to 0.6999999999999997
Info: NONBONDED TABLE R-SQUARED SPACING: 0.0625
Info: NONBONDED TABLE SIZE: 705 POINTS
TCL: Running for 1500000 steps
ETITLE: TS BOND ANGLE DIHED IMPRP ELECT VDW BOUNDARY MISC KINETIC TOTAL TEMP POTENTIAL TOTALAVG TEMPAVG PRESSURE GPRESSURE VOLUME PRESSAVG GPRESSAVG
ENERGY: 0 1.4374 10.5517 4.9510 0.0000 -10797.5470 1527.5990 0.0000 0.0000 1772.6563 -7480.3516 299.4432 -9253.0079 -7480.3516 299.4432 653.9158 746.2061 30422.0832 653.9158 746.2061
ENERGY: 300000 0.9334 14.2894 5.5893 0.0000 -10674.9917 1463.1475 0.0000 0.0000 1812.2135 -7378.8186 306.1253 -9191.0321 -7486.0112 298.9156 352.6968 391.6776 30851.3435 -11.8464 66.4650
ENERGY: 600000 3.3002 14.2411 7.8836 0.0000 -10725.6286 1434.7195 0.0000 0.0000 1734.1294 -7531.3547 292.9351 -9265.4842 -7491.2552 297.8137 -109.5005 -45.5732 30563.5517 -61.3706 17.2376
ENERGY: 900000 4.9822 11.1918 6.0567 0.0000 -10788.6218 1436.4811 0.0000 0.0000 1861.9720 -7467.9381 314.5307 -9329.9101 -7483.5336 300.1773 -119.5239 -91.6840 30546.4888 -141.8120 -76.7532
ENERGY: 1200000 3.2819 11.7274 7.4449 0.0000 -10593.8975 1387.0316 0.0000 0.0000 1816.6006 -7367.8111 306.8664 -9184.4117 -7466.0512 300.4363 -625.7129 -533.2454 31547.0330 -92.6713 -27.4632
ENERGY: 1500000 2.3133 9.2512 5.1648 0.0000 -10787.8732 1472.7739 0.0000 0.0000 1761.3060 -7537.0640 297.5258 -9298.3699 -7460.4793 300.8689 447.2779 419.6117 30411.4074 -39.7026 13.9761
TCL: Running FEP window   7: Lambda1 0.6999999999999997 Lambda2 0.6499999999999997 [dLambda -0.050000000000000044]
TCL: Setting parameter firsttimestep to 0
TCL: Setting parameter alchLambda to 0.6999999999999997
Info: NONBONDED TABLE R-SQUARED SPACING: 0.0625
Info: NONBONDED TABLE SIZE: 705 POINTS
TCL: Setting parameter alchLambda2 to 0.6499999999999997
Info: NONBONDED TABLE R-SQUARED SPACING: 0.0625
Info: NONBONDED TABLE SIZE: 705 POINTS
TCL: Running for 1500000 steps
ETITLE: TS BOND ANGLE DIHED IMPRP ELECT VDW BOUNDARY MISC KINETIC TOTAL TEMP POTENTIAL TOTALAVG TEMPAVG PRESSURE GPRESSURE VOLUME PRESSAVG GPRESSAVG
ENERGY: 0 2.3133 9.2512 5.1648 0.0000 -10786.8506 1472.9260 0.0000 0.0000 1760.3817 -7536.8136 297.3697 -9297.1953 -7536.8136 297.3697 342.4855 409.1839 30411.4074 342.4855 409.1839
ENERGY: 300000 6.0361 14.1358 6.3242 0.0000 -10867.7819 1528.8486 0.0000 0.0000 1781.9594 -7530.4777 301.0147 -9312.4370 -7543.6092 301.1322 753.7522 815.5184 30066.6287 -43.6720 -0.1851
ENERGY: 600000 2.0617 11.3042 6.7789 0.0000 -10814.0507 1474.7961 0.0000 0.0000 1747.5658 -7571.5440 295.2048 -9319.1098 -7533.7459 298.9452 82.0040 84.1297 30830.2430 -68.4655 -20.8973
ENERGY: 900000 5.3677 10.3901 5.1427 0.0000 -10668.7408 1416.7898 0.0000 0.0000 1807.5636 -7423.4871 305.3398 -9231.0507 -7508.3401 300.1884 -184.0212 -116.6052 30534.1383 62.6142 128.0069
ENERGY: 1200000 3.3825 17.5737 4.0580 0.0000 -10761.1159 1432.3913 0.0000 0.0000 1772.2646 -7531.4458 299.3770 -9303.7105 -7498.9063 300.7272 -152.5959 -39.0941 30319.3992 -36.2958 34.1806
ENERGY: 1500000 3.6802 8.6759 4.9322 0.0000 -10733.1839 1460.6260 0.0000 0.0000 1752.7000 -7502.5695 296.0721 -9255.2695 -7496.1647 300.0240 -169.3230 -136.5146 31340.9467 -90.8818 -25.0284
TCL: Running FEP window   8: Lambda1 0.6499999999999997 Lambda2 0.5999999999999996 [dLambda -0.050000000000000044]
TCL: Setting parameter firsttimestep to 0
TCL: Setting parameter alchLambda to 0.6499999999999997
Info: NONBONDED TABLE R-SQUARED SPACING: 0.0625
Info: NONBONDED TABLE SIZE: 705 POINTS
TCL: Setting parameter alchLambda2 to 0.5999999999999996
Info: NONBONDED TABLE R-SQUARED SPACING: 0.0625
Info: NONBONDED TABLE SIZE: 705 POINTS
TCL: Running for 1500000 steps
ETITLE: TS BOND ANGLE DIHED IMPRP ELECT VDW BOUNDARY MISC KINETIC TOTAL TEMP POTENTIAL TOTALAVG TEMPAVG PRESSURE GPRESSURE VOLUME PRESSAVG GPRESSAVG
ENERGY: 0 3.6802 8.6759 4.9322 0.0000 -10732.2519 1461.0254 0.0000 0.0000 1751.8102 -7502.1280 295.9218 -9253.9382 -7502.1280 295.9218 -227.4403 -142.8739 31340.9467 -227.4403 -142.8739
ENERGY: 300000 3.8645 17.1951 5.3837 0.0000 -10729.2748 1459.9920 0.0000 0.0000 1776.7554 -7466.0841 300.1356 -9242.8394 -7467.5829 302.5283 256.6095 372.6355 30439.3873 330.6187 391.5060
ENERGY: 600000 2.7520 11.2672 5.6469 0.0000 -10709.4726 1389.8454 0.0000 0.0000 1791.7945 -7508.1666 302.6761 -9299.9611 -7485.4981 301.5394 -375.4918 -389.9702 30774.6873 55.3784 107.4285
ENERGY: 900000 2.5012 11.4198 5.3900 0.0000 -10711.8906 1481.4522 0.0000 0.0000 1729.1109 -7482.0166 292.0873 -9211.1275 -7491.5911 300.1847 498.6388 464.5286 30551.8004 31.2414 81.0765
ENERGY: 1200000 2.1871 16.1302 7.5418 0.0000 -10693.9481 1383.9442 0.0000 0.0000 1771.4004 -7512.7443 299.2310 -9284.1447 -7501.8699 300.5778 -469.5877 -363.7454 30447.8383 4.6763 59.1682
ENERGY: 1500000 2.4005 14.2314 7.4738 0.0000 -10658.2674 1444.2132 0.0000 0.0000 1803.3316 -7386.6169 304.6250 -9189.9485 -7488.6021 301.2279 375.7769 401.1198 30531.8092 -12.2670 35.0980
TCL: Running FEP window   9: Lambda1 0.5999999999999996 Lambda2 0.5499999999999996 [dLambda -0.050000000000000044]
TCL: Setting parameter firsttimestep to 0
TCL: Setting parameter alchLambda to 0.5999999999999996
Info: NONBONDED TABLE R-SQUARED SPACING: 0.0625
Info: NONBONDED TABLE SIZE: 705 POINTS
TCL: Setting parameter alchLambda2 to 0.5499999999999996
Info: NONBONDED TABLE R-SQUARED SPACING: 0.0625
Info: NONBONDED TABLE SIZE: 705 POINTS
TCL: Running for 1500000 steps
ETITLE: TS BOND ANGLE DIHED IMPRP ELECT VDW BOUNDARY MISC KINETIC TOTAL TEMP POTENTIAL TOTALAVG TEMPAVG PRESSURE GPRESSURE VOLUME PRESSAVG GPRESSAVG
ENERGY: 0 2.4005 14.2314 7.4738 0.0000 -10658.0942 1444.6715 0.0000 0.0000 1802.4548 -7386.8623 304.4768 -9189.3171 -7386.8623 304.4768 307.0846 397.5055 30531.8092 307.0846 397.5055
ENERGY: 300000 1.8913 14.3181 6.4041 0.0000 -10691.7147 1439.9548 0.0000 0.0000 1847.2325 -7381.9140 312.0408 -9229.1464 -7443.8487 302.8370 350.8363 355.8521 30385.5679 -7.3374 34.1573
ENERGY: 600000 2.6695 12.6253 9.6987 0.0000 -10580.8996 1393.2510 0.0000 0.0000 1779.2007 -7383.4544 300.5487 -9162.6551 -7440.3604 301.1390 -21.8622 46.8384 30431.9315 38.3688 86.8905
ENERGY: 900000 2.0808 14.3097 5.6371 0.0000 -10655.8374 1390.6524 0.0000 0.0000 1746.9484 -7496.2090 295.1005 -9243.1574 -7465.1025 299.7459 -285.5950 -205.7567 30615.2978 -50.7118 12.8710
ENERGY: 1200000 2.5252 13.2801 6.4750 0.0000 -10722.5990 1464.0197 0.0000 0.0000 1816.0953 -7420.2037 306.7810 -9236.2991 -7474.9692 299.5341 279.5466 249.2658 30313.3128 -74.2799 -15.6586
ENERGY: 1500000 2.6906 9.4832 6.3077 0.0000 -10721.0152 1482.5850 0.0000 0.0000 1732.1213 -7487.8273 292.5959 -9219.9486 -7480.4778 299.2647 549.8807 565.4915 30456.0482 -29.5117 23.4612
TCL: Running FEP window  10: Lambda1 0.5499999999999996 Lambda2 0.4999999999999996 [dLambda -0.04999999999999999]
TCL: Setting parameter firsttimestep to 0
TCL: Setting parameter alchLambda to 0.5499999999999996
Info: NONBONDED TABLE R-SQUARED SPACING: 0.0625
Info: NONBONDED TABLE SIZE: 705 POINTS
TCL: Setting parameter alchLambda2 to 0.4999999999999996
Info: NONBONDED TABLE R-SQUARED SPACING: 0.0625
Info: NONBONDED TABLE SIZE: 705 POINTS
TCL: Running for 1500000 steps
ETITLE: TS BOND ANGLE DIHED IMPRP ELECT VDW BOUNDARY MISC KINETIC TOTAL TEMP POTENTIAL TOTALAVG TEMPAVG PRESSURE GPRESSURE VOLUME PRESSAVG GPRESSAVG
ENERGY: 0 2.6906 9.4832 6.3077 0.0000 -10720.4492 1483.3189 0.0000 0.0000 1731.2261 -7487.4226 292.4447 -9218.6488 -7487.4226 292.4447 488.2042 565.7043 30456.0482 488.2042 565.7043
ENERGY: 300000 7.2359 18.3314 6.6559 0.0000 -10719.9923 1454.7687 0.0000 0.0000 1751.1575 -7481.8429 295.8115 -9233.0004 -7428.6449 299.8445 -8.8458 22.3651 30517.3915 232.8019 267.0429
ENERGY: 600000 1.9573 14.7836 8.2323 0.0000 -10664.5284 1372.8602 0.0000 0.0000 1764.5673 -7502.1275 298.0768 -9266.6948 -7457.2698 298.6184 -269.9788 -227.3206 30476.2205 -65.3256 -10.9968
ENERGY: 900000 2.3032 12.0716 5.3048 0.0000 -10806.1498 1457.3337 0.0000 0.0000 1786.6403 -7542.4963 301.8054 -9329.1366 -7489.3970 297.9914 -70.4992 -28.4548 30491.0798 -120.0120 -59.9683
ENERGY: 1200000 2.3532 8.7174 5.3099 0.0000 -10740.2252 1421.2095 0.0000 0.0000 1793.0637 -7509.5715 302.8905 -9302.6352 -7482.3373 299.1616 18.0261 100.2766 29964.8090 -196.5437 -137.0011
ENERGY: 1500000 4.0435 11.9994 6.4381 0.0000 -10710.3346 1410.8460 0.0000 0.0000 1748.3315 -7528.6761 295.3341 -9277.0076 -7479.9080 299.6399 -586.6249 -502.5712 30628.8281 -235.4262 -172.6251
TCL: Running FEP window  11: Lambda1 0.4999999999999996 Lambda2 0.4499999999999996 [dLambda -0.04999999999999999]
TCL: Setting parameter firsttimestep to 0
TCL: Setting parameter alchLambda to 0.4999999999999996
Info: NONBONDED TABLE R-SQUARED SPACING: 0.0625
Info: NONBONDED TABLE SIZE: 705 POINTS
TCL: Setting parameter alchLambda2 to 0.4499999999999996
Info: NONBONDED TABLE R-SQUARED SPACING: 0.0625
Info: NONBONDED TABLE SIZE: 705 POINTS
TCL: Running for 1500000 steps
ETITLE: TS BOND ANGLE DIHED IMPRP ELECT VDW BOUNDARY MISC KINETIC TOTAL TEMP POTENTIAL TOTALAVG TEMPAVG PRESSURE GPRESSURE VOLUME PRESSAVG GPRESSAVG
ENERGY: 0 4.0435 11.9994 6.4381 0.0000 -10710.3336 1411.4818 0.0000 0.0000 1747.4749 -7528.8959 295.1894 -9276.3707 -7528.8959 295.1894 -593.7903 -508.0498 30628.8281 -593.7903 -508.0498
ENERGY: 300000 1.9861 12.7306 4.9354 0.0000 -10673.9251 1392.0652 0.0000 0.0000 1780.7852 -7481.4226 300.8163 -9262.2077 -7504.5684 299.1596 -531.3175 -507.1724 30736.1751 -160.7353 -108.6280
ENERGY: 600000 2.7357 10.0473 5.2804 0.0000 -10726.5071 1456.1218 0.0000 0.0000 1794.2707 -7458.0512 303.0944 -9252.3219 -7495.6405 300.8366 328.3747 384.4650 30243.8012 -102.2875 -38.1472
ENERGY: 900000 2.1172 11.1517 5.3094 0.0000 -10667.2290 1459.0144 0.0000 0.0000 1800.4382 -7389.1980 304.1362 -9189.6363 -7472.2251 300.5521 523.3528 585.4905 30233.2518 35.7700 95.6578
ENERGY: 1200000 3.2438 13.4971 6.8194 0.0000 -10789.7589 1505.3321 0.0000 0.0000 1778.7325 -7482.1339 300.4696 -9260.8665 -7483.1848 299.7770 735.8271 792.3810 30241.9561 130.9658 185.2145
ENERGY: 1500000 5.9056 14.6264 5.7254 0.0000 -10723.2729 1418.2329 0.0000 0.0000 1732.5902 -7546.1925 292.6751 -9278.7826 -7483.8055 299.2022 -219.8547 -162.6494 30385.8093 93.0023 143.4579
TCL: Running FEP window  12: Lambda1 0.4499999999999996 Lambda2 0.39999999999999963 [dLambda -0.04999999999999999]
TCL: Setting parameter firsttimestep to 0
TCL: Setting parameter alchLambda to 0.4499999999999996
Info: NONBONDED TABLE R-SQUARED SPACING: 0.0625
Info: NONBONDED TABLE SIZE: 705 POINTS
TCL: Setting parameter alchLambda2 to 0.39999999999999963
Info: NONBONDED TABLE R-SQUARED SPACING: 0.0625
Info: NONBONDED TABLE SIZE: 705 POINTS
TCL: Running for 1500000 steps
ETITLE: TS BOND ANGLE DIHED IMPRP ELECT VDW BOUNDARY MISC KINETIC TOTAL TEMP POTENTIAL TOTALAVG TEMPAVG PRESSURE GPRESSURE VOLUME PRESSAVG GPRESSAVG
ENERGY: 0 5.9056 14.6264 5.7254 0.0000 -10723.2721 1418.1918 0.0000 0.0000 1731.7431 -7547.0799 292.5320 -9278.8229 -7547.0799 292.5320 -235.2300 -177.5770 30385.8093 -235.2300 -177.5770
ENERGY: 300000 2.5546 11.3816 7.5749 0.0000 -10751.2406 1499.9713 0.0000 0.0000 1802.0854 -7427.6728 304.4144 -9229.7582 -7463.0295 301.7855 253.3491 325.0217 30796.4686 -210.4013 -146.4101
ENERGY: 600000 2.6835 17.3421 7.4726 0.0000 -10594.4912 1387.7303 0.0000 0.0000 1736.9559 -7442.3069 293.4125 -9179.2627 -7473.9757 299.9928 -403.2217 -384.6136 30409.7690 -202.1447 -138.5998
ENERGY: 900000 0.8297 13.7146 4.5806 0.0000 -10598.1128 1334.0743 0.0000 0.0000 1781.5149 -7463.3987 300.9396 -9244.9137 -7461.6238 300.1428 -604.1294 -572.2850 30375.3590 -231.6027 -166.1345
ENERGY: 1200000 3.3207 16.3238 5.6763 0.0000 -10607.4101 1355.6972 0.0000 0.0000 1766.0715 -7460.3208 298.3308 -9226.3922 -7467.5401 299.7042 -518.0103 -482.5833 30499.0281 -219.4573 -161.7365
ENERGY: 1500000 2.0181 11.3079 5.7887 0.0000 -10685.6424 1407.9530 0.0000 0.0000 1766.1496 -7492.4250 298.3440 -9258.5746 -7478.7493 298.9748 -259.0518 -195.0484 30703.6728 -260.1710 -201.3168
TCL: Running FEP window  13: Lambda1 0.39999999999999963 Lambda2 0.34999999999999964 [dLambda -0.04999999999999999]
TCL: Setting parameter firsttimestep to 0
TCL: Setting parameter alchLambda to 0.39999999999999963
Info: NONBONDED TABLE R-SQUARED SPACING: 0.0625
Info: NONBONDED TABLE SIZE: 705 POINTS
TCL: Setting parameter alchLambda2 to 0.34999999999999964
Info: NONBONDED TABLE R-SQUARED SPACING: 0.0625
Info: NONBONDED TABLE SIZE: 705 POINTS
TCL: Running for 1500000 steps
ETITLE: TS BOND ANGLE DIHED IMPRP ELECT VDW BOUNDARY MISC KINETIC TOTAL TEMP POTENTIAL TOTALAVG TEMPAVG PRESSURE GPRESSURE VOLUME PRESSAVG GPRESSAVG
ENERGY: 0 2.0181 11.3079 5.7887 0.0000 -10685.6423 1407.9625 0.0000 0.0000 1765.2731 -7493.2919 298.1960 -9258.5650 -7493.2919 298.1960 -282.7001 -207.6649 30703.6728 -282.7001 -207.6649
ENERGY: 300000 3.5881 15.8436 7.4886 0.0000 -10724.0621 1419.7079 0.0000 0.0000 1783.4547 -7493.9793 301.2673 -9277.4339 -7498.7022 299.2591 -52.1591 -90.8425 30307.2283 197.8622 231.0842
ENERGY: 600000 1.2491 7.9326 5.4510 0.0000 -10974.1246 1566.3600 0.0000 0.0000 1800.6395 -7592.4923 304.1702 -9393.1318 -7512.3471 297.6109 831.2766 893.5844 30173.1253 11.6473 58.2521
ENERGY: 900000 5.6375 13.0574 5.3432 0.0000 -10774.6328 1455.4190 0.0000 0.0000 1814.1061 -7481.0695 306.4450 -9295.1757 -7504.1408 298.3377 -155.1120 -14.5166 30517.5967 2.6761 69.1522
ENERGY: 1200000 2.2922 11.6851 4.5869 0.0000 -10635.3562 1418.7461 0.0000 0.0000 1817.3875 -7380.6584 306.9993 -9198.0459 -7483.0341 299.2209 -109.2906 -68.9754 30621.7710 -24.4082 41.0552
ENERGY: 1500000 6.1000 15.6304 4.5707 0.0000 -10749.4520 1525.0081 0.0000 0.0000 1722.5452 -7475.5976 290.9782 -9198.1428 -7478.5034 298.9569 565.5732 648.9173 30520.9609 -2.5075 60.2936
TCL: Running FEP window  14: Lambda1 0.34999999999999964 Lambda2 0.29999999999999966 [dLambda -0.04999999999999999]
TCL: Setting parameter firsttimestep to 0
TCL: Setting parameter alchLambda to 0.34999999999999964
Info: NONBONDED TABLE R-SQUARED SPACING: 0.0625
Info: NONBONDED TABLE SIZE: 705 POINTS
TCL: Setting parameter alchLambda2 to 0.29999999999999966
Info: NONBONDED TABLE R-SQUARED SPACING: 0.0625
Info: NONBONDED TABLE SIZE: 705 POINTS
TCL: Running for 1500000 steps
ETITLE: TS BOND ANGLE DIHED IMPRP ELECT VDW BOUNDARY MISC KINETIC TOTAL TEMP POTENTIAL TOTALAVG TEMPAVG PRESSURE GPRESSURE VOLUME PRESSAVG GPRESSAVG
ENERGY: 0 6.1000 15.6304 4.5707 0.0000 -10749.4528 1525.4435 0.0000 0.0000 1721.6799 -7476.0284 290.8321 -9197.7083 -7476.0284 290.8321 563.9932 645.0098 30520.9609 563.9932 645.0098
ENERGY: 300000 5.8212 11.0303 7.3123 0.0000 -10786.1211 1495.2381 0.0000 0.0000 1758.9875 -7507.7317 297.1342 -9266.7192 -7471.9523 298.1458 291.1039 351.2948 30123.8314 288.6770 391.6323
ENERGY: 600000 4.4645 12.0876 5.5535 0.0000 -10698.8177 1379.7981 0.0000 0.0000 1692.0405 -7604.8735 285.8253 -9296.9140 -7481.0740 298.0635 -538.9889 -505.8862 30318.0633 -56.2794 18.5653
ENERGY: 900000 3.5999 19.6512 5.9759 0.0000 -10712.5023 1427.2052 0.0000 0.0000 1724.8642 -7531.2058 291.3700 -9256.0701 -7488.2576 297.6989 -140.6956 -159.4018 30453.9236 -87.2541 -25.7553
ENERGY: 1200000 7.7006 17.0694 5.9002 0.0000 -10560.9565 1403.0696 0.0000 0.0000 1799.8407 -7327.3761 304.0353 -9127.2168 -7479.8797 298.6285 -151.6206 -58.4065 30751.2829 109.2730 176.4547
ENERGY: 1500000 8.5634 13.4770 6.0321 0.0000 -10639.8700 1356.0137 0.0000 0.0000 1793.3040 -7462.4799 302.9311 -9255.7839 -7484.0896 298.6737 -1101.6134 -1015.5247 30830.8904 25.6319 90.2628
TCL: Running FEP window  15: Lambda1 0.29999999999999966 Lambda2 0.24999999999999967 [dLambda -0.04999999999999999]
TCL: Setting parameter firsttimestep to 0
TCL: Setting parameter alchLambda to 0.29999999999999966
Info: NONBONDED TABLE R-SQUARED SPACING: 0.0625
Info: NONBONDED TABLE SIZE: 705 POINTS
TCL: Setting parameter alchLambda2 to 0.24999999999999967
Info: NONBONDED TABLE R-SQUARED SPACING: 0.0625
Info: NONBONDED TABLE SIZE: 705 POINTS
TCL: Running for 1500000 steps
ETITLE: TS BOND ANGLE DIHED IMPRP ELECT VDW BOUNDARY MISC KINETIC TOTAL TEMP POTENTIAL TOTALAVG TEMPAVG PRESSURE GPRESSURE VOLUME PRESSAVG GPRESSAVG
ENERGY: 0 8.5634 13.4770 6.0321 0.0000 -10639.8706 1355.4475 0.0000 0.0000 1792.4380 -7463.9126 302.7848 -9256.3506 -7463.9126 302.7848 -1108.3859 -1026.1154 30830.8904 -1108.3859 -1026.1154
ENERGY: 300000 2.3024 13.6484 6.6334 0.0000 -10726.5500 1475.9134 0.0000 0.0000 1878.9730 -7349.0793 317.4026 -9228.0523 -7469.1998 307.1440 306.4955 347.3158 30745.8267 -358.6280 -299.7573
ENERGY: 600000 2.3674 11.1926 6.3003 0.0000 -10788.1208 1445.9800 0.0000 0.0000 1782.9938 -7539.2867 301.1894 -9322.2805 -7483.6731 304.1629 160.1126 138.2638 30138.1082 -304.0069 -257.4129
ENERGY: 900000 2.9023 16.2974 4.3609 0.0000 -10501.8518 1304.9994 0.0000 0.0000 1810.0427 -7363.2491 305.7586 -9173.2918 -7481.2444 302.5480 -843.7622 -799.5470 30776.0219 -353.9793 -303.2362
ENERGY: 1200000 6.5972 13.0037 6.3992 0.0000 -10782.8742 1462.9393 0.0000 0.0000 1780.6558 -7513.2789 300.7945 -9293.9348 -7481.4895 302.2346 1.6900 -30.1734 30378.8360 -258.7151 -211.2433
ENERGY: 1500000 4.2671 11.4537 6.8694 0.0000 -10747.1379 1472.2365 0.0000 0.0000 1769.5022 -7482.8091 298.9104 -9252.3113 -7477.4570 302.0373 158.3770 189.9451 30429.1078 -170.7395 -121.2923
TCL: Running FEP window  16: Lambda1 0.24999999999999967 Lambda2 0.19999999999999968 [dLambda -0.04999999999999999]
TCL: Setting parameter firsttimestep to 0
TCL: Setting parameter alchLambda to 0.24999999999999967
Info: NONBONDED TABLE R-SQUARED SPACING: 0.0625
Info: NONBONDED TABLE SIZE: 705 POINTS
TCL: Setting parameter alchLambda2 to 0.19999999999999968
Info: NONBONDED TABLE R-SQUARED SPACING: 0.0625
Info: NONBONDED TABLE SIZE: 705 POINTS
TCL: Running for 1500000 steps
ETITLE: TS BOND ANGLE DIHED IMPRP ELECT VDW BOUNDARY MISC KINETIC TOTAL TEMP POTENTIAL TOTALAVG TEMPAVG PRESSURE GPRESSURE VOLUME PRESSAVG GPRESSAVG
ENERGY: 0 4.2671 11.4537 6.8694 0.0000 -10747.1366 1473.0141 0.0000 0.0000 1768.6224 -7482.9100 298.7618 -9251.5324 -7482.9100 298.7618 105.4829 192.2161 30429.1078 105.4829 192.2161
ENERGY: 300000 3.9471 8.2903 3.6481 0.0000 -10807.5759 1457.4762 0.0000 0.0000 1768.5376 -7565.6766 298.7474 -9334.2142 -7502.7747 299.2486 17.4979 64.3238 30272.9742 -50.1605 10.2953
ENERGY: 600000 1.9296 12.6445 6.7148 0.0000 -10617.0635 1332.3867 0.0000 0.0000 1789.8878 -7473.5002 302.3540 -9263.3880 -7482.3737 301.2288 -776.4768 -647.1019 30260.5317 -238.1292 -150.6758
ENERGY: 900000 3.0571 9.0238 6.2835 0.0000 -10841.3097 1502.5251 0.0000 0.0000 1811.0558 -7509.3644 305.9298 -9320.4202 -7494.5436 301.6448 104.4334 251.8180 30682.5929 -149.8737 -69.6385
ENERGY: 1200000 3.2711 16.5508 7.8314 0.0000 -10777.5099 1501.8779 0.0000 0.0000 1768.6434 -7479.3354 298.7653 -9247.9787 -7485.6975 301.0023 409.4308 403.9354 30236.2370 -126.0432 -55.0830
ENERGY: 1500000 3.5263 7.4015 5.0003 0.0000 -10645.2490 1381.2558 0.0000 0.0000 1803.8328 -7444.2322 304.7096 -9248.0650 -7476.1031 301.8287 -445.1205 -367.7964 30672.9934 -167.4226 -97.8222
TCL: Running FEP window  17: Lambda1 0.19999999999999968 Lambda2 0.1499999999999997 [dLambda -0.04999999999999999]
TCL: Setting parameter firsttimestep to 0
TCL: Setting parameter alchLambda to 0.19999999999999968
Info: NONBONDED TABLE R-SQUARED SPACING: 0.0625
Info: NONBONDED TABLE SIZE: 705 POINTS
TCL: Setting parameter alchLambda2 to 0.1499999999999997
Info: NONBONDED TABLE R-SQUARED SPACING: 0.0625
Info: NONBONDED TABLE SIZE: 705 POINTS
TCL: Running for 1500000 steps
ETITLE: TS BOND ANGLE DIHED IMPRP ELECT VDW BOUNDARY MISC KINETIC TOTAL TEMP POTENTIAL TOTALAVG TEMPAVG PRESSURE GPRESSURE VOLUME PRESSAVG GPRESSAVG
ENERGY: 0 3.5263 7.4015 5.0003 0.0000 -10645.2492 1381.9580 0.0000 0.0000 1802.8742 -7444.4887 304.5477 -9247.3630 -7444.4887 304.5477 -455.1251 -370.0378 30672.9934 -455.1251 -370.0378
ENERGY: 300000 2.0541 16.3435 7.0613 0.0000 -10783.5401 1483.1917 0.0000 0.0000 1735.4910 -7539.3985 293.1651 -9274.8895 -7503.6563 301.4082 302.6650 312.6436 30424.3194 202.4352 267.4547
ENERGY: 600000 1.2044 16.6038 7.2238 0.0000 -10681.6655 1443.2374 0.0000 0.0000 1870.9198 -7342.4762 316.0422 -9213.3960 -7479.8564 301.2730 -39.5524 -17.6178 30771.2061 210.6379 276.3717
ENERGY: 900000 1.4092 15.6009 4.5421 0.0000 -10550.5248 1381.0272 0.0000 0.0000 1787.4215 -7360.5239 301.9374 -9147.9454 -7461.6681 302.5566 -212.4495 -139.6622 30555.6115 203.1585 270.6242
ENERGY: 1200000 4.0148 10.1679 5.1012 0.0000 -10659.6638 1388.0409 0.0000 0.0000 1792.6720 -7459.6670 302.8243 -9252.3390 -7461.1094 302.4817 -463.0754 -382.0508 30651.7143 101.2318 166.1644
ENERGY: 1500000 5.8211 11.6744 8.0669 0.0000 -10804.3159 1522.2962 0.0000 0.0000 1791.5109 -7464.9466 302.6282 -9256.4575 -7463.7267 303.1734 215.2573 308.8269 30704.1901 25.9234 95.1125
TCL: Running FEP window  18: Lambda1 0.1499999999999997 Lambda2 0.09999999999999969 [dLambda -0.05 ]
TCL: Setting parameter firsttimestep to 0
TCL: Setting parameter alchLambda to 0.1499999999999997
Info: NONBONDED TABLE R-SQUARED SPACING: 0.0625
Info: NONBONDED TABLE SIZE: 705 POINTS
TCL: Setting parameter alchLambda2 to 0.09999999999999969
Info: NONBONDED TABLE R-SQUARED SPACING: 0.0625
Info: NONBONDED TABLE SIZE: 705 POINTS
TCL: Running for 1500000 steps
ETITLE: TS BOND ANGLE DIHED IMPRP ELECT VDW BOUNDARY MISC KINETIC TOTAL TEMP POTENTIAL TOTALAVG TEMPAVG PRESSURE GPRESSURE VOLUME PRESSAVG GPRESSAVG
ENERGY: 0 5.8211 11.6744 8.0669 0.0000 -10804.3155 1522.1129 0.0000 0.0000 1790.6186 -7466.0218 302.4774 -9256.6404 -7466.0218 302.4774 221.6233 303.7871 30704.1901 221.6233 303.7871
ENERGY: 300000 1.2737 12.4673 7.4060 0.0000 -10673.4520 1437.6336 0.0000 0.0000 1709.5012 -7505.1701 288.7748 -9214.6713 -7439.2590 300.7431 43.2306 99.5559 30445.0405 25.1724 93.3643
ENERGY: 600000 2.6056 16.3235 6.0020 0.0000 -10760.0102 1482.4395 0.0000 0.0000 1758.3639 -7494.2757 297.0289 -9252.6396 -7443.6630 300.7764 -104.0903 -31.8375 31080.7040 -33.3237 35.1322
ENERGY: 900000 3.9634 11.7057 5.9118 0.0000 -10755.1294 1474.0951 0.0000 0.0000 1736.9360 -7522.5174 293.4092 -9259.4535 -7447.2447 299.1733 244.5246 287.0041 30390.6782 81.0464 141.4280
ENERGY: 1200000 1.2798 8.9979 7.3580 0.0000 -10604.0075 1364.2034 0.0000 0.0000 1798.4251 -7423.7433 303.7961 -9222.1684 -7445.8270 300.6604 -517.3730 -498.0657 30529.3577 113.0210 166.7989
ENERGY: 1500000 4.3617 16.8594 8.9276 0.0000 -10665.8345 1411.7554 0.0000 0.0000 1784.4438 -7439.4866 301.4344 -9223.9304 -7444.4129 301.3705 -369.0766 -372.6668 30499.8825 89.0712 139.0983
TCL: Running FEP window  19: Lambda1 0.09999999999999969 Lambda2 0.049999999999999684 [dLambda -0.05 ]
TCL: Setting parameter firsttimestep to 0
TCL: Setting parameter alchLambda to 0.09999999999999969
Info: NONBONDED TABLE R-SQUARED SPACING: 0.0625
Info: NONBONDED TABLE SIZE: 705 POINTS
TCL: Setting parameter alchLambda2 to 0.049999999999999684
Info: NONBONDED TABLE R-SQUARED SPACING: 0.0625
Info: NONBONDED TABLE SIZE: 705 POINTS
TCL: Running for 1500000 steps
ETITLE: TS BOND ANGLE DIHED IMPRP ELECT VDW BOUNDARY MISC KINETIC TOTAL TEMP POTENTIAL TOTALAVG TEMPAVG PRESSURE GPRESSURE VOLUME PRESSAVG GPRESSAVG
ENERGY: 0 4.3617 16.8594 8.9276 0.0000 -10665.8361 1411.7060 0.0000 0.0000 1783.5342 -7440.4472 301.2807 -9223.9814 -7440.4472 301.2807 -451.0630 -380.2624 30499.8825 -451.0630 -380.2624
ENERGY: 300000 2.0121 12.6634 7.0444 0.0000 -10855.8404 1514.9331 0.0000 0.0000 1821.9180 -7497.2692 307.7646 -9319.1873 -7464.5195 300.7467 722.9121 741.7864 29678.7753 142.3579 207.2881
ENERGY: 600000 4.0577 11.0289 5.1246 0.0000 -10684.7965 1430.5498 0.0000 0.0000 1805.9108 -7428.1248 305.0606 -9234.0356 -7482.4895 299.9185 -215.3911 -136.5924 30609.8229 117.1080 202.2988
ENERGY: 900000 2.1130 16.4761 6.4259 0.0000 -10704.1733 1457.9264 0.0000 0.0000 1778.7373 -7442.4946 300.4704 -9221.2319 -7486.4809 299.8490 -90.2958 -8.4376 30842.7000 28.7173 111.3000
ENERGY: 1200000 2.4529 14.1027 6.0239 0.0000 -10698.1855 1382.1646 0.0000 0.0000 1724.1962 -7569.2454 291.2571 -9293.4416 -7488.7716 298.9011 -599.5224 -523.3987 30211.2125 -71.2326 13.2735
ENERGY: 1500000 3.4228 8.1889 4.4828 0.0000 -10617.4018 1379.7857 0.0000 0.0000 1779.9175 -7441.6041 300.6698 -9221.5217 -7488.9229 298.9404 -614.6483 -608.2268 30883.5545 -68.2047 6.7506
TCL: Running FEP window  20: Lambda1 0.049999999999999684 Lambda2 0.0    [dLambda -0.049999999999999684]
TCL: Setting parameter firsttimestep to 0
TCL: Setting parameter alchLambda to 0.049999999999999684
Info: NONBONDED TABLE R-SQUARED SPACING: 0.0625
Info: NONBONDED TABLE SIZE: 705 POINTS
TCL: Setting parameter alchLambda2 to 0.0
Info: NONBONDED TABLE R-SQUARED SPACING: 0.0625
Info: NONBONDED TABLE SIZE: 705 POINTS
TCL: Running for 1500000 steps
ETITLE: TS BOND ANGLE DIHED IMPRP ELECT VDW BOUNDARY MISC KINETIC TOTAL TEMP POTENTIAL TOTALAVG TEMPAVG PRESSURE GPRESSURE VOLUME PRESSAVG GPRESSAVG
ENERGY: 0 3.4228 8.1889 4.4828 0.0000 -10617.4020 1378.5025 0.0000 0.0000 1779.0144 -7443.7907 300.5172 -9222.8050 -7443.7907 300.5172 -696.4682 -612.9484 30883.5545 -696.4682 -612.9484
ENERGY: 300000 3.5055 14.9299 6.5374 0.0000 -10748.7138 1465.3935 0.0000 0.0000 1757.7954 -7500.5521 296.9328 -9258.3475 -7464.3166 300.9554 -57.1966 -9.9297 30431.8273 -393.2924 -321.3307
ENERGY: 600000 3.4920 9.4094 6.1053 0.0000 -10711.9452 1477.9134 0.0000 0.0000 1773.4331 -7441.5920 299.5744 -9215.0251 -7446.4656 301.6708 190.9141 321.3243 30569.6073 -45.3883 23.2271
ENERGY: 900000 2.8264 12.1219 5.3001 0.0000 -10751.6098 1421.7426 0.0000 0.0000 1757.6857 -7551.9331 296.9143 -9309.6188 -7470.4009 300.1124 -452.1418 -350.1161 30470.5407 -242.7957 -165.2304
ENERGY: 1200000 0.5990 11.9875 6.9696 0.0000 -10747.4525 1498.8244 0.0000 0.0000 1724.4081 -7504.6640 291.2929 -9229.0721 -7474.1966 299.2558 649.4829 717.0522 30220.3622 -126.5774 -54.9383
ENERGY: 1500000 3.9303 14.2721 8.0510 0.0000 -10810.7575 1541.8976 0.0000 0.0000 1769.4436 -7473.1628 298.9005 -9242.6064 -7474.1091 298.9074 822.4802 871.0000 30298.6832 -18.4199 44.8678
TCL: Exiting due to exit command.
