Info: SIMULATION PARAMETERS:
Info: TIMESTEP               2
Info: NUMBER OF STEPS        0
Info: STEPS PER CYCLE        10
Info: PERIODIC CELL BASIS 1  29.7334 0 0
Info: PERIODIC CELL BASIS 2  0 32.853 0
Info: PERIODIC CELL BASIS 3  0 0 30.3644
Info: PERIODIC CELL CENTER   0 0 0
Info: WRAPPING WATERS AROUND PERIODIC BOUNDARIES ON OUTPUT.
Info: WRAPPING ALL CLUSTERS AROUND PERIODIC BOUNDARIES ON OUTPUT.
Info: FIRST LDB TIMESTEP     50
Info: LAST LDB TIMESTEP     -1
Info: HOM BACKGROUND SCALING 1
Info: PME BACKGROUND SCALING 1
Info: MIN ATOMS PER PATCH    40
Info: EMPTY PATCH LOAD       40 ATOMS
Info: VELOCITY FILE          mobley_8713762_equil.vel
Info: CENTER OF MASS MOVING INITIALLY? NO
Info: DIELECTRIC             1
Info: EXCLUDE                SCALED ONE-FOUR
Info: 1-4 ELECTROSTATICS SCALED BY 0.833333
Info: MODIFIED 1-4 VDW PARAMETERS WILL BE USED
Info: DCD FILENAME           mobley_8713762_prod.dcd
Info: DCD FREQUENCY          100000
Info: DCD FIRST STEP         100000
Info: DCD FILE WILL CONTAIN UNIT CELL DATA
Info: XST FILENAME           mobley_8713762_prod.xst
Info: XST FREQUENCY          100000
Info: NO VELOCITY DCD OUTPUT
Info: NO FORCE DCD OUTPUT
Info: OUTPUT FILENAME        mobley_8713762_prod
Info: BINARY OUTPUT FILES WILL BE USED
Info: RESTART FILENAME       mobley_8713762_prod.restart
Info: RESTART FREQUENCY      100000
Info: BINARY RESTART FILES WILL BE USED
Info: CUTOFF                 9
Info: PAIRLIST DISTANCE      11
Info: PAIRLIST SHRINK RATE   0.01
Info: PAIRLIST GROW RATE     0.01
Info: PAIRLIST TRIGGER       0.3
Info: PAIRLISTS PER CYCLE    2
Info: PAIRLISTS ENABLED
Info: MARGIN                 2
Info: HYDROGEN GROUP CUTOFF  2.5
Info: PATCH DIMENSION        15.5
Info: ENERGY OUTPUT STEPS    100000
Info: ENERGY EVALUATION STEPS    100000
Info: OUTPUT ENERGY PRECISION 4
Info: CROSSTERM ENERGY INCLUDED IN DIHEDRAL
Info: TIMING OUTPUT STEPS    1000000
Info: PRESSURE OUTPUT STEPS  100000
Info: ALCHEMICAL FEP ON
Info: FEP CURRENT LAMBDA VALUE     1
Info: FEP COMPARISON LAMBDA VALUE  0.95
Info: FEP INTRA-ALCHEMICAL NON-BONDED INTERACTIONS WILL BE RETAINED
Info: FEP INTRA-ALCHEMICAL BONDED INTERACTIONS WILL BE RETAINED
Info: FEP VDW SHIFTING COEFFICIENT 5
Info: FEP ELEC. ACTIVE FOR ANNIHILATED PARTICLES BETWEEN LAMBDA = 0 AND LAMBDA = 0.5
Info: FEP ELEC. ACTIVE FOR EXNIHILATED PARTICLES BETWEEN LAMBDA = 0.5 AND LAMBDA = 1
Info: FEP VDW ACTIVE FOR ANNIHILATED PARTICLES BETWEEN LAMBDA = 0 AND LAMBDA = 1
Info: FEP VDW ACTIVE FOR EXNIHILATED PARTICLES BETWEEN LAMBDA = 0 AND LAMBDA = 1
Info: FEP BOND ACTIVE FOR ANNIHILATED PARTICLES BETWEEN LAMBDA = 1 AND LAMBDA = 1
Info: FEP BOND ACTIVE FOR EXNIHILATED PARTICLES BETWEEN LAMBDA = 0 AND LAMBDA = 0
Info: LANGEVIN DYNAMICS ACTIVE
Info: LANGEVIN TEMPERATURE   300
Info: LANGEVIN USING BBK INTEGRATOR
Info: LANGEVIN DAMPING COEFFICIENT IS 1 INVERSE PS
Info: LANGEVIN DYNAMICS APPLIED TO HYDROGENS
Info: LANGEVIN PISTON PRESSURE CONTROL ACTIVE
Info:        TARGET PRESSURE IS 1.01325 BAR
Info:     OSCILLATION PERIOD IS 50 FS
Info:             DECAY TIME IS 25 FS
Info:     PISTON TEMPERATURE IS 300 K
Info:       PRESSURE CONTROL IS GROUP-BASED
Info:    INITIAL STRAIN RATE IS -3.81466e-05 -3.81466e-05 -3.81466e-05
Info:       CELL FLUCTUATION IS ISOTROPIC
Info: PARTICLE MESH EWALD (PME) ACTIVE
Info: PME TOLERANCE               1e-06
Info: PME EWALD COEFFICIENT       0.348832
Info: PME INTERPOLATION ORDER     4
Info: PME GRID DIMENSIONS         32 36 32
Info: PME MAXIMUM GRID SPACING    1
Info: PME CALCULATION WILL BE PERFORMED ON GPU
Info: FULL ELECTROSTATIC EVALUATION FREQUENCY      2
Info: USING VERLET I (r-RESPA) MTS SCHEME.
Info: C1 SPLITTING OF LONG RANGE ELECTROSTATICS
Info: PLACING ATOMS IN PATCHES BY HYDROGEN GROUPS
Info: RIGID BONDS TO HYDROGEN : ALL
Info:         ERROR TOLERANCE : 1e-08
Info:          MAX ITERATIONS : 100
Info: RIGID WATER USING SETTLE ALGORITHM
Info: RANDOM NUMBER SEED     1744079451
Info: USE HYDROGEN BONDS?    NO
Info: Using AMBER format force field!
Info: AMBER PARM FILE        mobley_8713762.prmtop
Info: COORDINATE PDB         mobley_8713762.pdb
Info: Exclusions will be read from PARM file!
Info: SCNB (VDW SCALING)     2
Info: USING ARITHMETIC MEAN TO COMBINE L-J SIGMA PARAMETERS
Info: BINARY COORDINATES     mobley_8713762_equil.coor
Info: SUMMARY OF PARAMETERS:
Info: 10 BONDS
Info: 15 ANGLES
Info:   15 HARMONIC
Info:   0 COSINE-BASED
Info: 11 DIHEDRAL
Info: 0 IMPROPER
Info: 0 CROSSTERM
Info: 0 VDW
Info: 45 VDW_PAIRS
Info: 0 NBTHOLE_PAIRS
Info: To read alchdata from file: mobley_8713762.pdb
Info: To read alchflag data from column: 5
Info: STRUCTURE SUMMARY:
Info: 2914 ATOMS
Info: 2913 BONDS
Info: 61 ANGLES
Info: 83 DIHEDRALS
Info: 0 IMPROPERS
Info: 0 CROSSTERMS
Info: 3049 EXCLUSIONS
Info: 2901 RIGID BONDS
Info: ALCH: 0 ATOMS TO DISAPPEAR IN FINAL STATE
Info: ALCH: 34 ATOMS TO APPEAR IN FINAL STATE
Info: 5841 DEGREES OF FREEDOM
Info: 973 HYDROGEN GROUPS
Info: 4 ATOMS IN LARGEST HYDROGEN GROUP
Info: 973 MIGRATION GROUPS
Info: 4 ATOMS IN LARGEST MIGRATION GROUP
Info: TOTAL MASS = 17498.7 amu
Info: TOTAL CHARGE = 0.000599965 e
Info: MASS DENSITY = 0.979673 g/cm^3
Info: ATOM DENSITY = 0.098244 atoms/A^3
Info: ADDED 0 IMPLICIT EXCLUSIONS
Info: NONBONDED TABLE R-SQUARED SPACING: 0.0625
Info: NONBONDED TABLE SIZE: 705 POINTS
Info: REMOVING COM VELOCITY 0.126209 -0.12504 0.0317329
Info: Use 3D box decompostion in PME FFT.
Info: Updated CUDA force table with 4096 elements.
Info: Updated CUDA LJ table with 9 x 9 elements.
Info: Found 33 unique exclusion lists needing 140 bytes
TCL: Running for 1500000 steps
ETITLE: TS BOND ANGLE DIHED IMPRP ELECT VDW BOUNDARY MISC KINETIC TOTAL TEMP POTENTIAL TOTALAVG TEMPAVG PRESSURE GPRESSURE VOLUME PRESSAVG GPRESSAVG
ENERGY: 0 3.1702 21.4632 3.6906 0.0000 -10604.1727 1428.2617 0.0000 0.0000 1729.0894 -7418.4976 297.9344 -9147.5870 -7418.4976 297.9344 203.8483 276.0440 29660.8535 203.8483 276.0440
ENERGY: 300000 5.1484 13.6915 5.8851 0.0000 -10549.8291 1479.4691 0.0000 0.0000 1702.6744 -7342.9606 293.3829 -9045.6350 -7343.4197 300.4909 930.7478 963.7146 29897.9015 8.5837 65.9342
ENERGY: 600000 3.3153 15.4697 5.9850 0.0000 -10618.0506 1480.9287 0.0000 0.0000 1691.2479 -7421.1040 291.4140 -9112.3518 -7351.2333 298.1001 496.2239 578.2738 30060.6098 128.6316 187.7260
ENERGY: 900000 4.7493 20.6391 5.2466 0.0000 -10471.0349 1383.5425 0.0000 0.0000 1754.6614 -7302.1960 302.3406 -9056.8574 -7345.2795 300.0351 -201.3521 -201.6425 30382.3644 86.2891 140.8033
ENERGY: 1200000 2.1123 13.5578 6.0488 0.0000 -10289.7832 1280.3792 0.0000 0.0000 1709.3176 -7278.3674 294.5276 -8987.6850 -7347.2730 299.0100 -599.6049 -587.1970 30348.6553 -121.5395 -65.0501
ENERGY: 1500000 2.7573 18.3843 5.7377 0.0000 -10402.3402 1360.9844 0.0000 0.0000 1717.9784 -7296.4980 296.0199 -9014.4764 -7339.2564 299.5505 -403.2596 -330.8889 30537.6948 -60.1190 -2.6418
TCL: Running FEP window   2: Lambda1 0.95   Lambda2 0.8999999999999999 [dLambda -0.050000000000000044]
TCL: Setting parameter firsttimestep to 0
TCL: Setting parameter alchLambda to 0.95
Info: NONBONDED TABLE R-SQUARED SPACING: 0.0625
Info: NONBONDED TABLE SIZE: 705 POINTS
TCL: Setting parameter alchLambda2 to 0.8999999999999999
Info: NONBONDED TABLE R-SQUARED SPACING: 0.0625
Info: NONBONDED TABLE SIZE: 705 POINTS
TCL: Running for 1500000 steps
ETITLE: TS BOND ANGLE DIHED IMPRP ELECT VDW BOUNDARY MISC KINETIC TOTAL TEMP POTENTIAL TOTALAVG TEMPAVG PRESSURE GPRESSURE VOLUME PRESSAVG GPRESSAVG
ENERGY: 0 2.7573 18.3843 5.7377 0.0000 -10400.7908 1360.5770 0.0000 0.0000 1717.1204 -7296.2140 295.8720 -9013.3344 -7296.2140 295.8720 -444.1129 -355.8783 30537.6948 -444.1129 -355.8783
ENERGY: 300000 5.6922 21.4255 5.3437 0.0000 -10468.7115 1362.5134 0.0000 0.0000 1702.5738 -7371.1630 293.3655 -9073.7367 -7311.5197 297.3202 -518.6540 -440.2351 30111.8495 -20.8138 39.3757
ENERGY: 600000 5.5769 20.1008 4.2005 0.0000 -10487.5810 1431.2249 0.0000 0.0000 1750.8989 -7275.5790 301.6923 -9026.4780 -7302.1545 298.4955 137.5485 195.0875 30310.5878 65.8625 119.8358
ENERGY: 900000 5.4210 15.0487 5.6501 0.0000 -10432.2633 1399.5111 0.0000 0.0000 1713.2619 -7293.3705 295.2072 -9006.6324 -7300.9101 298.6497 -123.2603 -7.2034 30279.8602 24.8892 93.1922
ENERGY: 1200000 6.6272 18.0981 3.8867 0.0000 -10550.0610 1444.5130 0.0000 0.0000 1761.6189 -7315.3172 303.5394 -9076.9361 -7309.1809 298.6379 456.4159 523.2704 29833.0531 63.7014 132.2159
ENERGY: 1500000 4.6763 11.5254 7.0672 0.0000 -10530.9492 1417.4696 0.0000 0.0000 1782.3157 -7307.8951 307.1056 -9090.2108 -7314.8107 299.6103 37.2332 113.6818 30060.1009 69.9483 136.6696
TCL: Running FEP window   3: Lambda1 0.8999999999999999 Lambda2 0.8499999999999999 [dLambda -0.050000000000000044]
TCL: Setting parameter firsttimestep to 0
TCL: Setting parameter alchLambda to 0.8999999999999999
Info: NONBONDED TABLE R-SQUARED SPACING: 0.0625
Info: NONBONDED TABLE SIZE: 705 POINTS
TCL: Setting parameter alchLambda2 to 0.8499999999999999
Info: NONBONDED TABLE R-SQUARED SPACING: 0.0625
Info: NONBONDED TABLE SIZE: 705 POINTS
TCL: Running for 1500000 steps
ETITLE: TS BOND ANGLE DIHED IMPRP ELECT VDW BOUNDARY MISC KINETIC TOTAL TEMP POTENTIAL TOTALAVG TEMPAVG PRESSURE GPRESSURE VOLUME PRESSAVG GPRESSAVG
ENERGY: 0 4.6764 11.5254 7.0672 0.0000 -10529.0060 1417.4163 0.0000 0.0000 1781.4758 -7306.8450 306.9609 -9088.3208 -7306.8450 306.9609 4.0796 89.9725 30060.1009 4.0796 89.9725
ENERGY: 300000 8.4593 13.1898 3.6532 0.0000 -10562.3806 1455.0694 0.0000 0.0000 1753.3172 -7328.6917 302.1090 -9082.0089 -7347.4009 302.0110 326.7291 407.9914 29927.5636 180.7468 275.7740
ENERGY: 600000 2.8305 15.0074 6.1751 0.0000 -10425.6125 1401.6229 0.0000 0.0000 1731.4103 -7268.5663 298.3343 -8999.9766 -7322.6639 302.3258 353.5382 399.5645 30054.3361 157.4939 231.9028
ENERGY: 900000 3.8951 19.3816 5.5615 0.0000 -10457.3994 1424.2686 0.0000 0.0000 1734.9348 -7269.3577 298.9416 -9004.2925 -7317.0585 302.2866 544.0123 541.1097 29812.9895 247.9291 320.5648
ENERGY: 1200000 3.8051 21.2771 5.7946 0.0000 -10331.6539 1292.0592 0.0000 0.0000 1798.3192 -7210.3986 309.8632 -9008.7178 -7308.7458 302.8230 -546.5525 -549.3000 30183.4013 52.1261 122.5138
ENERGY: 1500000 6.8055 14.0268 5.6179 0.0000 -10471.6861 1330.2676 0.0000 0.0000 1718.1335 -7396.8347 296.0466 -9114.9682 -7313.0611 302.1708 -905.3660 -808.0351 30085.7997 -88.7954 -12.7091
TCL: Running FEP window   4: Lambda1 0.8499999999999999 Lambda2 0.7999999999999998 [dLambda -0.050000000000000044]
TCL: Setting parameter firsttimestep to 0
TCL: Setting parameter alchLambda to 0.8499999999999999
Info: NONBONDED TABLE R-SQUARED SPACING: 0.0625
Info: NONBONDED TABLE SIZE: 705 POINTS
TCL: Setting parameter alchLambda2 to 0.7999999999999998
Info: NONBONDED TABLE R-SQUARED SPACING: 0.0625
Info: NONBONDED TABLE SIZE: 705 POINTS
TCL: Running for 1500000 steps
ETITLE: TS BOND ANGLE DIHED IMPRP ELECT VDW BOUNDARY MISC KINETIC TOTAL TEMP POTENTIAL TOTALAVG TEMPAVG PRESSURE GPRESSURE VOLUME PRESSAVG GPRESSAVG
ENERGY: 0 6.8055 14.0268 5.6179 0.0000 -10470.3970 1330.5695 0.0000 0.0000 1717.2697 -7396.1075 295.8978 -9113.3773 -7396.1075 295.8978 -900.4875 -820.0049 30085.7997 -900.4875 -820.0049
ENERGY: 300000 4.6282 17.7302 5.7280 0.0000 -10443.6926 1418.9006 0.0000 0.0000 1757.6600 -7239.0456 302.8573 -8996.7057 -7279.5955 302.2938 294.4549 349.0636 30259.5144 -109.3267 -76.7175
ENERGY: 600000 2.5288 15.9184 5.6334 0.0000 -10552.5543 1436.0607 0.0000 0.0000 1720.4713 -7371.9416 296.4494 -9092.4129 -7300.7779 301.3529 118.2814 108.4415 30023.2335 -155.5362 -119.2624
ENERGY: 900000 2.5860 15.8248 6.5012 0.0000 -10593.9602 1463.1184 0.0000 0.0000 1741.2761 -7364.6537 300.0342 -9105.9299 -7319.7434 301.5417 667.3269 728.0167 29530.2746 92.0885 128.7401
ENERGY: 1200000 4.9568 16.5699 4.4829 0.0000 -10511.5634 1377.1950 0.0000 0.0000 1736.5184 -7371.8404 299.2144 -9108.3588 -7319.5404 301.1595 -365.0729 -288.7209 30312.3022 6.0858 59.3221
ENERGY: 1500000 5.8160 11.9560 4.6107 0.0000 -10579.7882 1484.4485 0.0000 0.0000 1722.7544 -7350.2026 296.8428 -9072.9569 -7313.5448 300.8609 484.4677 586.9558 30427.8607 -25.5639 30.8480
TCL: Running FEP window   5: Lambda1 0.7999999999999998 Lambda2 0.7499999999999998 [dLambda -0.050000000000000044]
TCL: Setting parameter firsttimestep to 0
TCL: Setting parameter alchLambda to 0.7999999999999998
Info: NONBONDED TABLE R-SQUARED SPACING: 0.0625
Info: NONBONDED TABLE SIZE: 705 POINTS
TCL: Setting parameter alchLambda2 to 0.7499999999999998
Info: NONBONDED TABLE R-SQUARED SPACING: 0.0625
Info: NONBONDED TABLE SIZE: 705 POINTS
TCL: Running for 1500000 steps
ETITLE: TS BOND ANGLE DIHED IMPRP ELECT VDW BOUNDARY MISC KINETIC TOTAL TEMP POTENTIAL TOTALAVG TEMPAVG PRESSURE GPRESSURE VOLUME PRESSAVG GPRESSAVG
ENERGY: 0 5.8160 11.9560 4.6107 0.0000 -10577.8225 1483.5008 0.0000 0.0000 1721.8749 -7350.0641 296.6913 -9071.9390 -7350.0641 296.6913 467.9269 564.3922 30427.8607 467.9269 564.3922
ENERGY: 300000 3.2181 16.9018 5.8756 0.0000 -10488.4032 1369.1935 0.0000 0.0000 1716.5996 -7376.6145 295.7823 -9093.2141 -7334.1088 294.4868 -422.2117 -347.7354 29914.1328 -53.5489 18.5287
ENERGY: 600000 4.0693 15.3167 4.8145 0.0000 -10469.0070 1345.0221 0.0000 0.0000 1753.6999 -7346.0844 302.1750 -9099.7843 -7331.1360 296.6845 -724.1173 -612.6811 30011.9920 -52.6023 8.8452
ENERGY: 900000 6.8298 17.7830 4.0315 0.0000 -10616.3894 1474.8395 0.0000 0.0000 1710.6588 -7402.2467 294.7587 -9112.9056 -7334.0541 297.8748 501.9647 542.3485 29853.0033 31.1290 84.8834
ENERGY: 1200000 7.8148 17.6954 6.0752 0.0000 -10471.7935 1353.4733 0.0000 0.0000 1776.0819 -7310.6529 306.0315 -9086.7348 -7341.5514 299.1186 -634.2300 -540.0598 29925.9818 88.0461 146.5615
ENERGY: 1500000 3.9969 18.8340 9.2968 0.0000 -10664.6305 1515.0074 0.0000 0.0000 1706.6897 -7410.8057 294.0748 -9117.4955 -7343.4353 299.1026 972.6876 1082.8697 29446.2037 133.7038 189.4863
TCL: Running FEP window   6: Lambda1 0.7499999999999998 Lambda2 0.6999999999999997 [dLambda -0.050000000000000044]
TCL: Setting parameter firsttimestep to 0
TCL: Setting parameter alchLambda to 0.7499999999999998
Info: NONBONDED TABLE R-SQUARED SPACING: 0.0625
Info: NONBONDED TABLE SIZE: 705 POINTS
TCL: Setting parameter alchLambda2 to 0.6999999999999997
Info: NONBONDED TABLE R-SQUARED SPACING: 0.0625
Info: NONBONDED TABLE SIZE: 705 POINTS
TCL: Running for 1500000 steps
ETITLE: TS BOND ANGLE DIHED IMPRP ELECT VDW BOUNDARY MISC KINETIC TOTAL TEMP POTENTIAL TOTALAVG TEMPAVG PRESSURE GPRESSURE VOLUME PRESSAVG GPRESSAVG
ENERGY: 0 3.9969 18.8340 9.2968 0.0000 -10662.5004 1514.4452 0.0000 0.0000 1705.8112 -7410.1164 293.9234 -9115.9276 -7410.1164 293.9234 990.8296 1060.2560 29446.2037 990.8296 1060.2560
ENERGY: 300000 3.6166 16.2547 3.9677 0.0000 -10515.1823 1372.7839 0.0000 0.0000 1713.2507 -7405.3087 295.2053 -9118.5594 -7374.7270 294.6859 -92.6029 -14.4433 29589.1844 320.7164 377.4007
ENERGY: 600000 6.5167 17.2147 3.2624 0.0000 -10502.4235 1415.9698 0.0000 0.0000 1719.7032 -7339.7567 296.3171 -9059.4599 -7346.9620 297.1893 175.8780 242.0238 29788.8231 233.9454 290.2550
ENERGY: 900000 2.7996 11.9669 4.6135 0.0000 -10512.1677 1391.9846 0.0000 0.0000 1712.4869 -7388.3164 295.0736 -9100.8032 -7346.6327 297.3163 -318.5293 -269.3843 30243.7220 140.8777 195.5312
ENERGY: 1200000 2.1953 17.6396 7.1475 0.0000 -10330.3315 1326.2943 0.0000 0.0000 1674.5208 -7302.5340 288.5318 -8977.0548 -7338.4046 297.7725 -388.6917 -333.9968 30261.4425 15.0925 69.2838
ENERGY: 1500000 2.7758 19.6536 5.7565 0.0000 -10441.1194 1361.3074 0.0000 0.0000 1749.9383 -7301.6878 301.5268 -9051.6261 -7340.9112 298.0494 -229.3530 -150.9426 29848.2047 -8.0020 55.3081
TCL: Running FEP window   7: Lambda1 0.6999999999999997 Lambda2 0.6499999999999997 [dLambda -0.050000000000000044]
TCL: Setting parameter firsttimestep to 0
TCL: Setting parameter alchLambda to 0.6999999999999997
Info: NONBONDED TABLE R-SQUARED SPACING: 0.0625
Info: NONBONDED TABLE SIZE: 705 POINTS
TCL: Setting parameter alchLambda2 to 0.6499999999999997
Info: NONBONDED TABLE R-SQUARED SPACING: 0.0625
Info: NONBONDED TABLE SIZE: 705 POINTS
TCL: Running for 1500000 steps
ETITLE: TS BOND ANGLE DIHED IMPRP ELECT VDW BOUNDARY MISC KINETIC TOTAL TEMP POTENTIAL TOTALAVG TEMPAVG PRESSURE GPRESSURE VOLUME PRESSAVG GPRESSAVG
ENERGY: 0 2.7758 19.6536 5.7565 0.0000 -10439.2398 1361.1419 0.0000 0.0000 1749.0718 -7300.8402 301.3775 -9049.9120 -7300.8402 301.3775 -226.8831 -161.5244 29848.2047 -226.8831 -161.5244
ENERGY: 300000 2.6169 18.7392 3.2074 0.0000 -10419.3524 1338.7109 0.0000 0.0000 1773.7712 -7282.3066 305.6334 -9056.0778 -7313.3001 303.2689 -610.9745 -606.0181 29992.6798 -173.7865 -160.9860
ENERGY: 600000 4.8812 10.8356 6.5136 0.0000 -10536.6051 1401.5063 0.0000 0.0000 1688.0559 -7424.8124 290.8640 -9112.8683 -7331.8318 300.3166 -23.1524 35.1294 29664.5598 108.4600 136.7781
ENERGY: 900000 5.3533 17.6667 5.5667 0.0000 -10493.6210 1332.3572 0.0000 0.0000 1753.9562 -7378.7210 302.2191 -9132.6772 -7344.6373 299.7516 -803.3096 -761.4209 30111.1405 -106.9467 -76.2192
ENERGY: 1200000 2.2603 21.3855 4.9956 0.0000 -10559.4699 1403.7992 0.0000 0.0000 1720.4117 -7406.6176 296.4392 -9127.0293 -7354.2873 299.9482 -261.6980 -243.6966 30011.9360 -72.4324 -36.9968
ENERGY: 1500000 4.6744 17.1607 4.1031 0.0000 -10433.7127 1353.1897 0.0000 0.0000 1738.3879 -7316.1969 299.5366 -9054.5848 -7353.5697 300.0051 -554.2635 -430.3832 30075.8762 -156.1454 -114.4633
TCL: Running FEP window   8: Lambda1 0.6499999999999997 Lambda2 0.5999999999999996 [dLambda -0.050000000000000044]
TCL: Setting parameter firsttimestep to 0
TCL: Setting parameter alchLambda to 0.6499999999999997
Info: NONBONDED TABLE R-SQUARED SPACING: 0.0625
Info: NONBONDED TABLE SIZE: 705 POINTS
TCL: Setting parameter alchLambda2 to 0.5999999999999996
Info: NONBONDED TABLE R-SQUARED SPACING: 0.0625
Info: NONBONDED TABLE SIZE: 705 POINTS
TCL: Running for 1500000 steps
ETITLE: TS BOND ANGLE DIHED IMPRP ELECT VDW BOUNDARY MISC KINETIC TOTAL TEMP POTENTIAL TOTALAVG TEMPAVG PRESSURE GPRESSURE VOLUME PRESSAVG GPRESSAVG
ENERGY: 0 4.6744 17.1607 4.1031 0.0000 -10432.4207 1352.3107 0.0000 0.0000 1737.5132 -7316.6586 299.3859 -9054.1718 -7316.6586 299.3859 -542.1733 -449.7381 30075.8762 -542.1733 -449.7381
ENERGY: 300000 7.1892 14.6885 4.7113 0.0000 -10465.4979 1408.5101 0.0000 0.0000 1771.1939 -7259.2048 305.1893 -9030.3987 -7316.9429 301.7563 131.7156 170.1002 29971.6785 67.9838 123.0176
ENERGY: 600000 3.7075 18.0084 4.7967 0.0000 -10369.0766 1332.2962 0.0000 0.0000 1751.1656 -7259.1022 301.7383 -9010.2679 -7299.2824 301.2887 -443.8143 -413.9504 30144.8387 26.1063 78.6552
ENERGY: 900000 3.8832 12.1616 4.8212 0.0000 -10460.7569 1419.6875 0.0000 0.0000 1783.4372 -7236.7662 307.2989 -9020.2035 -7293.5539 302.6094 77.5662 143.5224 30235.6960 5.8810 54.7862
ENERGY: 1200000 5.3897 16.4904 5.4579 0.0000 -10578.5226 1428.4329 0.0000 0.0000 1745.7927 -7376.9590 300.8125 -9122.7517 -7293.1587 301.7822 -155.3078 -103.3329 29954.5133 -55.4698 1.9290
ENERGY: 1500000 6.4128 15.2575 3.5598 0.0000 -10440.2362 1357.1278 0.0000 0.0000 1747.1256 -7310.7528 301.0422 -9057.8784 -7300.0230 301.3731 -644.5662 -634.1997 30400.1575 -107.4127 -48.8470
TCL: Running FEP window   9: Lambda1 0.5999999999999996 Lambda2 0.5499999999999996 [dLambda -0.050000000000000044]
TCL: Setting parameter firsttimestep to 0
TCL: Setting parameter alchLambda to 0.5999999999999996
Info: NONBONDED TABLE R-SQUARED SPACING: 0.0625
Info: NONBONDED TABLE SIZE: 705 POINTS
TCL: Setting parameter alchLambda2 to 0.5499999999999996
Info: NONBONDED TABLE R-SQUARED SPACING: 0.0625
Info: NONBONDED TABLE SIZE: 705 POINTS
TCL: Running for 1500000 steps
ETITLE: TS BOND ANGLE DIHED IMPRP ELECT VDW BOUNDARY MISC KINETIC TOTAL TEMP POTENTIAL TOTALAVG TEMPAVG PRESSURE GPRESSURE VOLUME PRESSAVG GPRESSAVG
ENERGY: 0 6.4128 15.2575 3.5598 0.0000 -10438.6636 1356.5872 0.0000 0.0000 1746.3037 -7310.5427 300.9005 -9056.8464 -7310.5427 300.9005 -725.1978 -649.3380 30400.1575 -725.1978 -649.3380
ENERGY: 300000 8.9483 12.9629 5.3760 0.0000 -10524.8106 1451.1370 0.0000 0.0000 1738.7260 -7307.6603 299.5948 -9046.3863 -7328.1297 302.5737 126.5620 201.8738 30055.3367 -558.1333 -495.0712
ENERGY: 600000 3.8373 15.5405 6.7808 0.0000 -10450.0729 1409.3621 0.0000 0.0000 1763.2935 -7251.2586 303.8280 -9014.5521 -7323.4323 301.7536 242.8590 271.1788 29860.8768 -257.0533 -194.8094
ENERGY: 900000 7.6750 22.0952 3.4235 0.0000 -10532.9474 1402.6612 0.0000 0.0000 1691.6274 -7405.4650 291.4794 -9097.0924 -7335.9178 299.6229 -506.4846 -373.3706 29939.3766 -201.7409 -136.6337
ENERGY: 1200000 3.4829 20.1138 4.6274 0.0000 -10496.2003 1411.6125 0.0000 0.0000 1781.9966 -7274.3672 307.0507 -9056.3638 -7335.8599 300.0275 17.5915 75.9627 29918.0612 -197.7993 -139.2096
ENERGY: 1500000 2.4838 16.5830 4.1642 0.0000 -10530.9213 1463.1944 0.0000 0.0000 1709.0884 -7335.4076 294.4881 -9044.4960 -7333.4514 299.4295 455.3636 559.3461 29745.2889 -52.0769 15.2001
TCL: Running FEP window  10: Lambda1 0.5499999999999996 Lambda2 0.4999999999999996 [dLambda -0.04999999999999999]
TCL: Setting parameter firsttimestep to 0
TCL: Setting parameter alchLambda to 0.5499999999999996
Info: NONBONDED TABLE R-SQUARED SPACING: 0.0625
Info: NONBONDED TABLE SIZE: 705 POINTS
TCL: Setting parameter alchLambda2 to 0.4999999999999996
Info: NONBONDED TABLE R-SQUARED SPACING: 0.0625
Info: NONBONDED TABLE SIZE: 705 POINTS
TCL: Running for 1500000 steps
ETITLE: TS BOND ANGLE DIHED IMPRP ELECT VDW BOUNDARY MISC KINETIC TOTAL TEMP POTENTIAL TOTALAVG TEMPAVG PRESSURE GPRESSURE VOLUME PRESSAVG GPRESSAVG
ENERGY: 0 2.4838 16.5830 4.1642 0.0000 -10529.8909 1463.1757 0.0000 0.0000 1708.2413 -7335.2429 294.3421 -9043.4842 -7335.2429 294.3421 460.1105 545.1465 29745.2889 460.1105 545.1465
ENERGY: 300000 6.9010 18.4531 8.2542 0.0000 -10484.0392 1387.6707 0.0000 0.0000 1772.2505 -7290.5097 305.3713 -9062.7602 -7306.8412 302.1421 -217.8482 -167.5527 29838.4274 -78.0722 -19.8307
ENERGY: 600000 5.0876 15.0603 6.3992 0.0000 -10408.6666 1408.0481 0.0000 0.0000 1738.1966 -7235.8748 299.5036 -8974.0714 -7287.9021 302.1955 343.4003 328.1373 29885.1542 28.6010 70.9042
ENERGY: 900000 1.8903 14.4401 5.7024 0.0000 -10563.4527 1482.8315 0.0000 0.0000 1739.2712 -7319.3172 299.6888 -9058.5884 -7293.5792 301.6817 705.7539 752.6720 29790.4554 153.3869 202.2294
ENERGY: 1200000 4.2991 16.2179 6.4207 0.0000 -10378.5282 1356.0004 0.0000 0.0000 1711.3072 -7284.2829 294.8704 -8995.5901 -7294.3348 300.6847 -370.0043 -331.3735 30235.0410 -25.6359 29.1625
ENERGY: 1500000 3.8984 14.2877 7.9089 0.0000 -10440.2447 1393.9881 0.0000 0.0000 1700.5381 -7319.6235 293.0148 -9020.1616 -7293.3670 300.7783 -29.0406 81.9844 30164.2196 27.0545 86.4808
TCL: Running FEP window  11: Lambda1 0.4999999999999996 Lambda2 0.4499999999999996 [dLambda -0.04999999999999999]
TCL: Setting parameter firsttimestep to 0
TCL: Setting parameter alchLambda to 0.4999999999999996
Info: NONBONDED TABLE R-SQUARED SPACING: 0.0625
Info: NONBONDED TABLE SIZE: 705 POINTS
TCL: Setting parameter alchLambda2 to 0.4499999999999996
Info: NONBONDED TABLE R-SQUARED SPACING: 0.0625
Info: NONBONDED TABLE SIZE: 705 POINTS
TCL: Running for 1500000 steps
ETITLE: TS BOND ANGLE DIHED IMPRP ELECT VDW BOUNDARY MISC KINETIC TOTAL TEMP POTENTIAL TOTALAVG TEMPAVG PRESSURE GPRESSURE VOLUME PRESSAVG GPRESSAVG
ENERGY: 0 3.8984 14.2877 7.9089 0.0000 -10440.2699 1394.3504 0.0000 0.0000 1699.6915 -7320.1330 292.8689 -9019.8245 -7320.1330 292.8689 -9.9256 75.1532 30164.2196 -9.9256 75.1532
ENERGY: 300000 4.6649 25.4063 6.2801 0.0000 -10520.9885 1400.1166 0.0000 0.0000 1735.1374 -7349.3831 298.9765 -9084.5205 -7341.6606 298.7039 83.7871 189.6228 29346.0470 -121.3459 -38.8119
ENERGY: 600000 3.9647 13.2992 5.3044 0.0000 -10538.1386 1480.5543 0.0000 0.0000 1728.9798 -7306.0361 297.9155 -9035.0159 -7324.5739 298.9437 388.8315 531.0789 30393.6990 93.2757 183.2911
ENERGY: 900000 1.9543 16.7778 4.6687 0.0000 -10600.6777 1458.6174 0.0000 0.0000 1731.6994 -7386.9599 298.3841 -9118.6593 -7331.1779 298.8415 418.3049 474.0155 29496.0432 84.8950 167.8279
ENERGY: 1200000 7.5798 17.5228 4.2386 0.0000 -10435.4486 1399.4138 0.0000 0.0000 1675.7412 -7330.9525 288.7421 -9006.6937 -7342.2070 298.5068 -230.7791 -133.5860 30011.8948 26.4744 106.5698
ENERGY: 1500000 4.3303 10.9606 3.5300 0.0000 -10411.7520 1367.7315 0.0000 0.0000 1727.3467 -7297.8530 297.6341 -9025.1997 -7334.1376 298.9540 -190.0465 -184.9794 29722.5228 29.0805 95.9793
TCL: Running FEP window  12: Lambda1 0.4499999999999996 Lambda2 0.39999999999999963 [dLambda -0.04999999999999999]
TCL: Setting parameter firsttimestep to 0
TCL: Setting parameter alchLambda to 0.4499999999999996
Info: NONBONDED TABLE R-SQUARED SPACING: 0.0625
Info: NONBONDED TABLE SIZE: 705 POINTS
TCL: Setting parameter alchLambda2 to 0.39999999999999963
Info: NONBONDED TABLE R-SQUARED SPACING: 0.0625
Info: NONBONDED TABLE SIZE: 705 POINTS
TCL: Running for 1500000 steps
ETITLE: TS BOND ANGLE DIHED IMPRP ELECT VDW BOUNDARY MISC KINETIC TOTAL TEMP POTENTIAL TOTALAVG TEMPAVG PRESSURE GPRESSURE VOLUME PRESSAVG GPRESSAVG
ENERGY: 0 4.3303 10.9606 3.5300 0.0000 -10411.7506 1367.9523 0.0000 0.0000 1726.5008 -7298.4767 297.4883 -9024.9775 -7298.4767 297.4883 -277.7498 -194.4001 29722.5228 -277.7498 -194.4001
ENERGY: 300000 2.5513 15.0635 6.6162 0.0000 -10550.0708 1384.8306 0.0000 0.0000 1710.3683 -7430.6409 294.7086 -9141.0092 -7324.8965 298.1402 -243.9076 -218.4687 29716.3360 -195.3532 -110.0697
ENERGY: 600000 4.8363 16.5447 3.3880 0.0000 -10461.0191 1326.7766 0.0000 0.0000 1650.1058 -7459.3677 284.3250 -9109.4735 -7332.8953 296.2656 -774.7683 -798.9335 29774.3203 -316.9542 -254.3992
ENERGY: 900000 3.8216 19.1860 5.4332 0.0000 -10485.0690 1386.6200 0.0000 0.0000 1803.4198 -7266.5883 310.7420 -9070.0081 -7315.8331 298.2573 -418.8199 -331.4486 30326.9907 -329.7635 -260.6048
ENERGY: 1200000 3.8051 11.1739 5.7521 0.0000 -10579.6564 1498.9888 0.0000 0.0000 1764.0061 -7295.9303 303.9508 -9059.9364 -7311.0750 298.5434 568.9152 539.2661 30169.5582 -250.8004 -197.3379
ENERGY: 1500000 3.3368 14.1783 3.9915 0.0000 -10364.6341 1318.2072 0.0000 0.0000 1831.4348 -7193.4856 315.5692 -9024.9204 -7304.8899 300.0856 -660.7380 -602.2834 30085.2795 -220.9572 -163.2097
TCL: Running FEP window  13: Lambda1 0.39999999999999963 Lambda2 0.34999999999999964 [dLambda -0.04999999999999999]
TCL: Setting parameter firsttimestep to 0
TCL: Setting parameter alchLambda to 0.39999999999999963
Info: NONBONDED TABLE R-SQUARED SPACING: 0.0625
Info: NONBONDED TABLE SIZE: 705 POINTS
TCL: Setting parameter alchLambda2 to 0.34999999999999964
Info: NONBONDED TABLE R-SQUARED SPACING: 0.0625
Info: NONBONDED TABLE SIZE: 705 POINTS
TCL: Running for 1500000 steps
ETITLE: TS BOND ANGLE DIHED IMPRP ELECT VDW BOUNDARY MISC KINETIC TOTAL TEMP POTENTIAL TOTALAVG TEMPAVG PRESSURE GPRESSURE VOLUME PRESSAVG GPRESSAVG
ENERGY: 0 3.3368 14.1783 3.9915 0.0000 -10364.6331 1317.9068 0.0000 0.0000 1830.5687 -7194.6510 315.4200 -9025.2198 -7194.6510 315.4200 -700.6105 -614.3798 30085.2795 -700.6105 -614.3798
ENERGY: 300000 6.2839 21.1640 5.7017 0.0000 -10377.7624 1307.4438 0.0000 0.0000 1699.5643 -7337.6047 292.8470 -9037.1690 -7301.6392 302.3170 -879.8243 -866.5018 30113.5924 -425.6725 -402.1095
ENERGY: 600000 5.2707 12.0426 6.3403 0.0000 -10461.8317 1401.4093 0.0000 0.0000 1754.9998 -7281.7691 302.3989 -9036.7689 -7318.6150 300.5835 -290.5481 -217.5455 30327.3554 -402.8907 -375.2985
ENERGY: 900000 4.0059 15.0456 3.7779 0.0000 -10446.6138 1364.7725 0.0000 0.0000 1736.3623 -7322.6495 299.1876 -9059.0118 -7323.2080 300.2266 -305.0362 -225.3791 29668.2303 -331.9160 -291.6746
ENERGY: 1200000 4.5466 13.8262 4.1220 0.0000 -10424.4951 1366.8511 0.0000 0.0000 1753.5451 -7281.6041 302.1483 -9035.1492 -7315.1611 300.4383 -400.9416 -340.8361 29950.3984 -377.6084 -334.8920
ENERGY: 1500000 2.5047 23.1261 4.0936 0.0000 -10406.3829 1343.7795 0.0000 0.0000 1733.2660 -7299.6129 298.6540 -9032.8789 -7314.6565 300.8875 -445.5998 -427.6409 30096.2214 -362.4331 -317.5631
TCL: Running FEP window  14: Lambda1 0.34999999999999964 Lambda2 0.29999999999999966 [dLambda -0.04999999999999999]
TCL: Setting parameter firsttimestep to 0
TCL: Setting parameter alchLambda to 0.34999999999999964
Info: NONBONDED TABLE R-SQUARED SPACING: 0.0625
Info: NONBONDED TABLE SIZE: 705 POINTS
TCL: Setting parameter alchLambda2 to 0.29999999999999966
Info: NONBONDED TABLE R-SQUARED SPACING: 0.0625
Info: NONBONDED TABLE SIZE: 705 POINTS
TCL: Running for 1500000 steps
ETITLE: TS BOND ANGLE DIHED IMPRP ELECT VDW BOUNDARY MISC KINETIC TOTAL TEMP POTENTIAL TOTALAVG TEMPAVG PRESSURE GPRESSURE VOLUME PRESSAVG GPRESSAVG
ENERGY: 0 2.5047 23.1261 4.0936 0.0000 -10406.3821 1344.8334 0.0000 0.0000 1732.3929 -7299.4314 298.5036 -9031.8243 -7299.4314 298.5036 -484.9643 -428.0351 30096.2214 -484.9643 -428.0351
ENERGY: 300000 2.0906 14.3339 4.0451 0.0000 -10580.5229 1478.8815 0.0000 0.0000 1738.7763 -7342.3954 299.6035 -9081.1717 -7325.8063 299.6947 568.2361 639.3662 29782.0047 262.8380 314.4480
ENERGY: 600000 2.5996 11.1554 9.3357 0.0000 -10550.0497 1443.5232 0.0000 0.0000 1767.7630 -7315.6727 304.5981 -9083.4357 -7309.8833 300.9726 -115.8137 -23.0444 30404.1018 -26.9762 46.6374
ENERGY: 900000 3.7277 17.0003 4.7117 0.0000 -10487.5039 1448.5692 0.0000 0.0000 1719.5322 -7293.9628 296.2876 -9013.4950 -7306.0696 301.3746 251.2870 256.6103 30059.0704 -43.3328 24.9922
ENERGY: 1200000 2.2797 17.3950 4.3695 0.0000 -10490.8328 1368.3749 0.0000 0.0000 1761.7112 -7336.7026 303.5553 -9098.4138 -7319.9863 300.4964 -454.1818 -386.8762 29867.4639 0.2399 61.0115
ENERGY: 1500000 5.6236 15.4129 5.3666 0.0000 -10526.6229 1452.6778 0.0000 0.0000 1713.0783 -7334.4637 295.1756 -9047.5420 -7318.8471 300.1893 219.6464 291.3894 29623.8038 -47.4361 12.6724
TCL: Running FEP window  15: Lambda1 0.29999999999999966 Lambda2 0.24999999999999967 [dLambda -0.04999999999999999]
TCL: Setting parameter firsttimestep to 0
TCL: Setting parameter alchLambda to 0.29999999999999966
Info: NONBONDED TABLE R-SQUARED SPACING: 0.0625
Info: NONBONDED TABLE SIZE: 705 POINTS
TCL: Setting parameter alchLambda2 to 0.24999999999999967
Info: NONBONDED TABLE R-SQUARED SPACING: 0.0625
Info: NONBONDED TABLE SIZE: 705 POINTS
TCL: Running for 1500000 steps
ETITLE: TS BOND ANGLE DIHED IMPRP ELECT VDW BOUNDARY MISC KINETIC TOTAL TEMP POTENTIAL TOTALAVG TEMPAVG PRESSURE GPRESSURE VOLUME PRESSAVG GPRESSAVG
ENERGY: 0 5.6236 15.4129 5.3666 0.0000 -10526.6217 1451.9994 0.0000 0.0000 1712.2226 -7335.9965 295.0281 -9048.2191 -7335.9965 295.0281 185.6844 276.4318 29623.8038 185.6844 276.4318
ENERGY: 300000 3.8571 12.9910 5.5619 0.0000 -10679.4054 1546.4400 0.0000 0.0000 1779.3311 -7331.2242 306.5914 -9110.5554 -7293.3719 303.8451 1062.5714 1163.5790 29443.3856 131.7710 186.4755
ENERGY: 600000 3.0553 15.7473 6.4908 0.0000 -10577.9921 1502.3358 0.0000 0.0000 1742.8327 -7307.5302 300.3025 -9050.3629 -7299.5418 302.0098 662.1797 682.1296 29716.1074 248.9199 317.9398
ENERGY: 900000 4.6270 17.6591 4.3590 0.0000 -10583.4951 1454.2110 0.0000 0.0000 1770.3675 -7332.2716 305.0469 -9102.6391 -7315.7725 300.6015 282.4507 350.2524 29452.1465 175.9738 241.4028
ENERGY: 1200000 4.6362 20.4670 5.9555 0.0000 -10385.8491 1383.8686 0.0000 0.0000 1764.0135 -7206.9083 303.9521 -8970.9218 -7301.3132 300.7958 60.7671 125.5038 30062.2192 138.2200 202.5201
ENERGY: 1500000 4.4053 12.5145 6.1169 0.0000 -10509.7833 1423.4626 0.0000 0.0000 1762.7851 -7300.4989 303.7404 -9063.2840 -7303.6423 301.1450 174.5351 265.0410 29492.6940 115.3163 182.5966
TCL: Running FEP window  16: Lambda1 0.24999999999999967 Lambda2 0.19999999999999968 [dLambda -0.04999999999999999]
TCL: Setting parameter firsttimestep to 0
TCL: Setting parameter alchLambda to 0.24999999999999967
Info: NONBONDED TABLE R-SQUARED SPACING: 0.0625
Info: NONBONDED TABLE SIZE: 705 POINTS
TCL: Setting parameter alchLambda2 to 0.19999999999999968
Info: NONBONDED TABLE R-SQUARED SPACING: 0.0625
Info: NONBONDED TABLE SIZE: 705 POINTS
TCL: Running for 1500000 steps
ETITLE: TS BOND ANGLE DIHED IMPRP ELECT VDW BOUNDARY MISC KINETIC TOTAL TEMP POTENTIAL TOTALAVG TEMPAVG PRESSURE GPRESSURE VOLUME PRESSAVG GPRESSAVG
ENERGY: 0 4.4053 12.5145 6.1169 0.0000 -10509.7826 1423.5515 0.0000 0.0000 1761.9171 -7301.2772 303.5908 -9063.1944 -7301.2772 303.5908 182.2508 257.7005 29492.6940 182.2508 257.7005
ENERGY: 300000 2.5774 15.2798 4.1361 0.0000 -10473.5430 1425.1795 0.0000 0.0000 1759.5613 -7266.8090 303.1849 -9026.3703 -7299.7102 300.9248 166.4211 175.5497 29951.9935 -164.9571 -91.7517
ENERGY: 600000 2.6455 13.9883 6.9008 0.0000 -10471.8741 1388.2931 0.0000 0.0000 1689.7017 -7370.3447 291.1476 -9060.0464 -7323.5622 298.5941 -759.5151 -678.4608 30393.1033 -297.0975 -225.7924
ENERGY: 900000 3.6816 17.9484 4.8729 0.0000 -10455.7061 1386.7259 0.0000 0.0000 1760.1029 -7282.3745 303.2782 -9042.4773 -7310.6106 298.3126 -299.8533 -225.5594 30265.3874 -336.0952 -268.0448
ENERGY: 1200000 4.8710 20.2364 4.8984 0.0000 -10426.1631 1357.9249 0.0000 0.0000 1778.8781 -7259.3542 306.5133 -9038.2323 -7307.0252 299.5539 -726.7687 -624.6512 30330.3519 -245.9943 -174.2255
ENERGY: 1500000 4.0424 17.5027 6.0444 0.0000 -10404.9977 1401.3201 0.0000 0.0000 1749.5000 -7226.5881 301.4513 -8976.0881 -7301.2611 299.6522 -70.2892 -2.7365 30106.4304 -205.6558 -138.8369
TCL: Running FEP window  17: Lambda1 0.19999999999999968 Lambda2 0.1499999999999997 [dLambda -0.04999999999999999]
TCL: Setting parameter firsttimestep to 0
TCL: Setting parameter alchLambda to 0.19999999999999968
Info: NONBONDED TABLE R-SQUARED SPACING: 0.0625
Info: NONBONDED TABLE SIZE: 705 POINTS
TCL: Setting parameter alchLambda2 to 0.1499999999999997
Info: NONBONDED TABLE R-SQUARED SPACING: 0.0625
Info: NONBONDED TABLE SIZE: 705 POINTS
TCL: Running for 1500000 steps
ETITLE: TS BOND ANGLE DIHED IMPRP ELECT VDW BOUNDARY MISC KINETIC TOTAL TEMP POTENTIAL TOTALAVG TEMPAVG PRESSURE GPRESSURE VOLUME PRESSAVG GPRESSAVG
ENERGY: 0 4.0424 17.5027 6.0444 0.0000 -10404.9982 1400.6834 0.0000 0.0000 1748.6273 -7228.0980 301.3009 -8976.7253 -7228.0980 301.3009 -97.7713 -10.2514 30106.4304 -97.7713 -10.2514
ENERGY: 300000 3.8700 24.1037 7.3840 0.0000 -10467.9555 1424.1008 0.0000 0.0000 1763.8284 -7244.6685 303.9202 -9008.4969 -7266.6461 298.5873 109.5255 136.9225 29887.3285 -5.3310 80.7800
ENERGY: 600000 3.5672 17.5948 5.5642 0.0000 -10562.4450 1430.0509 0.0000 0.0000 1738.8390 -7366.8288 299.6143 -9105.6678 -7305.0299 300.3516 -168.8570 -102.9026 29799.6633 -4.7957 92.4058
ENERGY: 900000 5.3178 15.6066 3.6407 0.0000 -10340.0528 1371.9699 0.0000 0.0000 1718.1793 -7225.3385 296.0545 -8943.5178 -7299.4051 300.4909 -327.8859 -294.9817 30503.4756 2.7889 82.6838
ENERGY: 1200000 2.8535 15.9719 3.2588 0.0000 -10492.8484 1405.9210 0.0000 0.0000 1675.2340 -7389.6092 288.6547 -9064.8432 -7317.2382 299.6811 -327.0490 -255.4598 30222.7196 8.4709 86.2336
ENERGY: 1500000 4.1276 15.5919 5.0874 0.0000 -10592.3141 1421.1102 0.0000 0.0000 1787.3728 -7359.0242 307.9770 -9146.3970 -7318.2613 300.5754 -303.2114 -199.8490 29654.8957 30.0989 108.7107
TCL: Running FEP window  18: Lambda1 0.1499999999999997 Lambda2 0.09999999999999969 [dLambda -0.05 ]
TCL: Setting parameter firsttimestep to 0
TCL: Setting parameter alchLambda to 0.1499999999999997
Info: NONBONDED TABLE R-SQUARED SPACING: 0.0625
Info: NONBONDED TABLE SIZE: 705 POINTS
TCL: Setting parameter alchLambda2 to 0.09999999999999969
Info: NONBONDED TABLE R-SQUARED SPACING: 0.0625
Info: NONBONDED TABLE SIZE: 705 POINTS
TCL: Running for 1500000 steps
ETITLE: TS BOND ANGLE DIHED IMPRP ELECT VDW BOUNDARY MISC KINETIC TOTAL TEMP POTENTIAL TOTALAVG TEMPAVG PRESSURE GPRESSURE VOLUME PRESSAVG GPRESSAVG
ENERGY: 0 4.1276 15.5919 5.0874 0.0000 -10592.3144 1419.9033 0.0000 0.0000 1786.5411 -7361.0630 307.8337 -9147.6041 -7361.0630 307.8337 -307.2186 -212.7574 29654.8957 -307.2186 -212.7574
ENERGY: 300000 2.6189 16.2434 4.7446 0.0000 -10537.8939 1428.2332 0.0000 0.0000 1732.5451 -7353.5087 298.5298 -9086.0538 -7329.8224 304.6302 123.2755 125.3178 29933.3151 15.2583 41.6390
ENERGY: 600000 3.2739 15.9272 4.8287 0.0000 -10498.7564 1401.5938 0.0000 0.0000 1753.4724 -7319.6604 302.1357 -9073.1328 -7327.2443 302.6779 110.1547 173.6100 29401.2470 131.3125 182.1403
ENERGY: 900000 3.9458 18.7219 3.3646 0.0000 -10538.1218 1423.5295 0.0000 0.0000 1765.8894 -7322.6707 304.2753 -9088.5600 -7317.7986 302.3579 141.2990 273.7651 29413.0813 -19.8623 33.4300
ENERGY: 1200000 2.7432 17.7637 4.6988 0.0000 -10496.2535 1414.2281 0.0000 0.0000 1718.7531 -7338.0668 296.1534 -9056.8199 -7329.9017 300.6978 -114.5267 8.7742 29947.5391 11.9098 66.9321
ENERGY: 1500000 3.6242 18.0645 4.3683 0.0000 -10475.2540 1402.5384 0.0000 0.0000 1807.2720 -7239.3866 311.4058 -9046.6587 -7317.0391 301.6136 -15.2311 124.4202 29574.2758 108.1769 174.4099
TCL: Running FEP window  19: Lambda1 0.09999999999999969 Lambda2 0.049999999999999684 [dLambda -0.05 ]
TCL: Setting parameter firsttimestep to 0
TCL: Setting parameter alchLambda to 0.09999999999999969
Info: NONBONDED TABLE R-SQUARED SPACING: 0.0625
Info: NONBONDED TABLE SIZE: 705 POINTS
TCL: Setting parameter alchLambda2 to 0.049999999999999684
Info: NONBONDED TABLE R-SQUARED SPACING: 0.0625
Info: NONBONDED TABLE SIZE: 705 POINTS
TCL: Running for 1500000 steps
ETITLE: TS BOND ANGLE DIHED IMPRP ELECT VDW BOUNDARY MISC KINETIC TOTAL TEMP POTENTIAL TOTALAVG TEMPAVG PRESSURE GPRESSURE VOLUME PRESSAVG GPRESSAVG
ENERGY: 0 3.6242 18.0645 4.3683 0.0000 -10475.2528 1402.4699 0.0000 0.0000 1806.4055 -7240.3204 311.2565 -9046.7260 -7240.3204 311.2565 23.9146 117.4742 29574.2758 23.9146 117.4742
ENERGY: 300000 2.1665 15.2463 5.3667 0.0000 -10410.5049 1313.7632 0.0000 0.0000 1743.5104 -7330.4518 300.4192 -9073.9622 -7310.4214 304.6024 -668.9419 -612.2094 29696.3626 -359.9016 -295.0071
ENERGY: 600000 4.8867 9.6659 5.4584 0.0000 -10449.9395 1385.8584 0.0000 0.0000 1729.5834 -7314.4867 298.0195 -9044.0701 -7316.5241 302.9574 -565.2968 -439.6794 30363.9816 -255.0818 -187.8477
ENERGY: 900000 2.0190 17.8387 9.2507 0.0000 -10481.1154 1441.6111 0.0000 0.0000 1705.9984 -7304.3974 293.9556 -9010.3958 -7320.1284 300.3698 278.7615 315.0653 29856.6430 -70.2376 -8.3327
ENERGY: 1200000 3.3698 16.2696 6.8252 0.0000 -10448.7627 1405.6601 0.0000 0.0000 1802.1234 -7214.5147 310.5187 -9016.6380 -7312.8779 301.1672 -51.5987 88.1938 30179.8286 -183.0963 -111.3191
ENERGY: 1500000 2.0321 11.3750 7.5108 0.0000 -10424.4015 1346.9392 0.0000 0.0000 1746.5101 -7310.0342 300.9361 -9056.5443 -7307.5452 301.6297 -701.6945 -599.4505 29935.5272 -268.4221 -195.0890
TCL: Running FEP window  20: Lambda1 0.049999999999999684 Lambda2 0.0    [dLambda -0.049999999999999684]
TCL: Setting parameter firsttimestep to 0
TCL: Setting parameter alchLambda to 0.049999999999999684
Info: NONBONDED TABLE R-SQUARED SPACING: 0.0625
Info: NONBONDED TABLE SIZE: 705 POINTS
TCL: Setting parameter alchLambda2 to 0.0
Info: NONBONDED TABLE R-SQUARED SPACING: 0.0625
Info: NONBONDED TABLE SIZE: 705 POINTS
TCL: Running for 1500000 steps
ETITLE: TS BOND ANGLE DIHED IMPRP ELECT VDW BOUNDARY MISC KINETIC TOTAL TEMP POTENTIAL TOTALAVG TEMPAVG PRESSURE GPRESSURE VOLUME PRESSAVG GPRESSAVG
ENERGY: 0 2.0321 11.3750 7.5108 0.0000 -10424.3999 1344.7552 0.0000 0.0000 1745.6130 -7313.1137 300.7815 -9058.7267 -7313.1137 300.7815 -693.1461 -612.6977 29935.5272 -693.1461 -612.6977
ENERGY: 300000 5.8599 17.9356 3.4766 0.0000 -10570.4047 1483.9724 0.0000 0.0000 1751.9663 -7307.1939 301.8762 -9059.1602 -7282.7785 300.9865 556.2915 594.0489 29527.6715 -33.7463 29.6158
ENERGY: 600000 3.1491 21.3016 6.1430 0.0000 -10509.5810 1409.5495 0.0000 0.0000 1747.0603 -7322.3776 301.0309 -9069.4379 -7313.5296 299.2846 65.7547 71.7498 29622.9436 -64.8234 -10.7708
ENERGY: 900000 5.8731 9.7201 5.1715 0.0000 -10443.8840 1345.6634 0.0000 0.0000 1701.8214 -7375.6346 293.2359 -9077.4560 -7323.0392 297.6799 -736.1571 -633.1858 29854.8358 80.3397 135.5026
ENERGY: 1200000 4.7758 14.2892 6.6430 0.0000 -10429.7277 1366.6133 0.0000 0.0000 1717.2864 -7320.1201 295.9006 -9037.4064 -7321.5545 296.9075 -443.5024 -388.7782 29932.4530 -12.1804 50.5564
ENERGY: 1500000 2.7502 17.2488 3.3262 0.0000 -10509.1835 1406.5285 0.0000 0.0000 1714.8858 -7364.4439 295.4870 -9079.3297 -7317.9000 297.8120 -2.6375 38.3825 29365.4376 38.6471 99.2654
TCL: Exiting due to exit command.
