Info: SIMULATION PARAMETERS:
Info: TIMESTEP               2
Info: NUMBER OF STEPS        0
Info: STEPS PER CYCLE        10
Info: PERIODIC CELL BASIS 1  30.6871 0 0
Info: PERIODIC CELL BASIS 2  0 30.0906 0
Info: PERIODIC CELL BASIS 3  0 0 33.7651
Info: PERIODIC CELL CENTER   0 0 0
Info: WRAPPING WATERS AROUND PERIODIC BOUNDARIES ON OUTPUT.
Info: WRAPPING ALL CLUSTERS AROUND PERIODIC BOUNDARIES ON OUTPUT.
Info: FIRST LDB TIMESTEP     50
Info: LAST LDB TIMESTEP     -1
Info: HOM BACKGROUND SCALING 1
Info: PME BACKGROUND SCALING 1
Info: MIN ATOMS PER PATCH    40
Info: EMPTY PATCH LOAD       40 ATOMS
Info: VELOCITY FILE          mobley_2328633_equil.vel
Info: CENTER OF MASS MOVING INITIALLY? NO
Info: DIELECTRIC             1
Info: EXCLUDE                SCALED ONE-FOUR
Info: 1-4 ELECTROSTATICS SCALED BY 0.833333
Info: MODIFIED 1-4 VDW PARAMETERS WILL BE USED
Info: DCD FILENAME           mobley_2328633_prod.dcd
Info: DCD FREQUENCY          100000
Info: DCD FIRST STEP         100000
Info: DCD FILE WILL CONTAIN UNIT CELL DATA
Info: XST FILENAME           mobley_2328633_prod.xst
Info: XST FREQUENCY          100000
Info: NO VELOCITY DCD OUTPUT
Info: NO FORCE DCD OUTPUT
Info: OUTPUT FILENAME        mobley_2328633_prod
Info: BINARY OUTPUT FILES WILL BE USED
Info: RESTART FILENAME       mobley_2328633_prod.restart
Info: RESTART FREQUENCY      100000
Info: BINARY RESTART FILES WILL BE USED
Info: CUTOFF                 9
Info: PAIRLIST DISTANCE      11
Info: PAIRLIST SHRINK RATE   0.01
Info: PAIRLIST GROW RATE     0.01
Info: PAIRLIST TRIGGER       0.3
Info: PAIRLISTS PER CYCLE    2
Info: PAIRLISTS ENABLED
Info: MARGIN                 2
Info: HYDROGEN GROUP CUTOFF  2.5
Info: PATCH DIMENSION        15.5
Info: ENERGY OUTPUT STEPS    100000
Info: ENERGY EVALUATION STEPS    100000
Info: OUTPUT ENERGY PRECISION 4
Info: CROSSTERM ENERGY INCLUDED IN DIHEDRAL
Info: TIMING OUTPUT STEPS    1000000
Info: PRESSURE OUTPUT STEPS  100000
Info: ALCHEMICAL FEP ON
Info: FEP CURRENT LAMBDA VALUE     1
Info: FEP COMPARISON LAMBDA VALUE  0.95
Info: FEP INTRA-ALCHEMICAL NON-BONDED INTERACTIONS WILL BE RETAINED
Info: FEP INTRA-ALCHEMICAL BONDED INTERACTIONS WILL BE RETAINED
Info: FEP VDW SHIFTING COEFFICIENT 5
Info: FEP ELEC. ACTIVE FOR ANNIHILATED PARTICLES BETWEEN LAMBDA = 0 AND LAMBDA = 0.5
Info: FEP ELEC. ACTIVE FOR EXNIHILATED PARTICLES BETWEEN LAMBDA = 0.5 AND LAMBDA = 1
Info: FEP VDW ACTIVE FOR ANNIHILATED PARTICLES BETWEEN LAMBDA = 0 AND LAMBDA = 1
Info: FEP VDW ACTIVE FOR EXNIHILATED PARTICLES BETWEEN LAMBDA = 0 AND LAMBDA = 1
Info: FEP BOND ACTIVE FOR ANNIHILATED PARTICLES BETWEEN LAMBDA = 1 AND LAMBDA = 1
Info: FEP BOND ACTIVE FOR EXNIHILATED PARTICLES BETWEEN LAMBDA = 0 AND LAMBDA = 0
Info: LANGEVIN DYNAMICS ACTIVE
Info: LANGEVIN TEMPERATURE   300
Info: LANGEVIN USING BBK INTEGRATOR
Info: LANGEVIN DAMPING COEFFICIENT IS 1 INVERSE PS
Info: LANGEVIN DYNAMICS APPLIED TO HYDROGENS
Info: LANGEVIN PISTON PRESSURE CONTROL ACTIVE
Info:        TARGET PRESSURE IS 1.01325 BAR
Info:     OSCILLATION PERIOD IS 50 FS
Info:             DECAY TIME IS 25 FS
Info:     PISTON TEMPERATURE IS 300 K
Info:       PRESSURE CONTROL IS GROUP-BASED
Info:    INITIAL STRAIN RATE IS 8.58354e-05 8.58354e-05 8.58354e-05
Info:       CELL FLUCTUATION IS ISOTROPIC
Info: PARTICLE MESH EWALD (PME) ACTIVE
Info: PME TOLERANCE               1e-06
Info: PME EWALD COEFFICIENT       0.348832
Info: PME INTERPOLATION ORDER     4
Info: PME GRID DIMENSIONS         32 32 36
Info: PME MAXIMUM GRID SPACING    1
Info: PME CALCULATION WILL BE PERFORMED ON GPU
Info: FULL ELECTROSTATIC EVALUATION FREQUENCY      2
Info: USING VERLET I (r-RESPA) MTS SCHEME.
Info: C1 SPLITTING OF LONG RANGE ELECTROSTATICS
Info: PLACING ATOMS IN PATCHES BY HYDROGEN GROUPS
Info: RIGID BONDS TO HYDROGEN : ALL
Info:         ERROR TOLERANCE : 1e-08
Info:          MAX ITERATIONS : 100
Info: RIGID WATER USING SETTLE ALGORITHM
Info: RANDOM NUMBER SEED     1743997168
Info: USE HYDROGEN BONDS?    NO
Info: Using AMBER format force field!
Info: AMBER PARM FILE        mobley_2328633.prmtop
Info: COORDINATE PDB         mobley_2328633.pdb
Info: Exclusions will be read from PARM file!
Info: SCNB (VDW SCALING)     2
Info: USING ARITHMETIC MEAN TO COMBINE L-J SIGMA PARAMETERS
Info: BINARY COORDINATES     mobley_2328633_equil.coor
Info: SUMMARY OF PARAMETERS:
Info: 4 BONDS
Info: 3 ANGLES
Info:   3 HARMONIC
Info:   0 COSINE-BASED
Info: 5 DIHEDRAL
Info: 0 IMPROPER
Info: 0 CROSSTERM
Info: 0 VDW
Info: 10 VDW_PAIRS
Info: 0 NBTHOLE_PAIRS
Info: To read alchdata from file: mobley_2328633.pdb
Info: To read alchflag data from column: 5
Info: STRUCTURE SUMMARY:
Info: 2964 ATOMS
Info: 2964 BONDS
Info: 60 ANGLES
Info: 114 DIHEDRALS
Info: 0 IMPROPERS
Info: 0 CROSSTERMS
Info: 3109 EXCLUSIONS
Info: 2954 RIGID BONDS
Info: ALCH: 0 ATOMS TO DISAPPEAR IN FINAL STATE
Info: ALCH: 30 ATOMS TO APPEAR IN FINAL STATE
Info: 5938 DEGREES OF FREEDOM
Info: 988 HYDROGEN GROUPS
Info: 4 ATOMS IN LARGEST HYDROGEN GROUP
Info: 988 MIGRATION GROUPS
Info: 4 ATOMS IN LARGEST MIGRATION GROUP
Info: TOTAL MASS = 17759.9 amu
Info: TOTAL CHARGE = -9.99831e-05 e
Info: MASS DENSITY = 0.9459 g/cm^3
Info: ATOM DENSITY = 0.0950656 atoms/A^3
Info: ADDED 0 IMPLICIT EXCLUSIONS
Info: NONBONDED TABLE R-SQUARED SPACING: 0.0625
Info: NONBONDED TABLE SIZE: 705 POINTS
Info: REMOVING COM VELOCITY -0.20201 -0.174472 0.21886
Info: Use 3D box decompostion in PME FFT.
Info: Updated CUDA force table with 4096 elements.
Info: Updated CUDA LJ table with 4 x 4 elements.
Info: Found 33 unique exclusion lists needing 136 bytes
TCL: Running for 1500000 steps
ETITLE: TS BOND ANGLE DIHED IMPRP ELECT VDW BOUNDARY MISC KINETIC TOTAL TEMP POTENTIAL TOTALAVG TEMPAVG PRESSURE GPRESSURE VOLUME PRESSAVG GPRESSAVG
ENERGY: 0 2.2269 13.5497 12.3128 0.0000 -10480.8150 1388.0562 0.0000 0.0000 1761.1383 -7303.5312 298.4995 -9064.6695 -7303.5312 298.4995 -381.8398 -301.7241 31178.4614 -381.8398 -301.7241
ENERGY: 300000 1.5175 17.9900 14.8520 0.0000 -10732.6765 1421.0563 0.0000 0.0000 1766.9539 -7510.3067 299.4852 -9277.2606 -7444.6039 298.1183 -218.2940 -150.0709 30406.4977 310.4546 383.4696
ENERGY: 600000 5.2725 16.1288 11.8374 0.0000 -10603.7140 1338.5866 0.0000 0.0000 1762.3653 -7469.5233 298.7075 -9231.8886 -7452.1350 298.6360 -833.7707 -831.5709 30904.2119 42.0437 108.8946
ENERGY: 900000 2.5932 18.1989 13.3783 0.0000 -10584.6473 1331.9402 0.0000 0.0000 1805.5007 -7413.0360 306.0186 -9218.5367 -7437.4446 300.1440 -903.0931 -866.9272 30746.3284 27.6357 86.9637
ENERGY: 1200000 4.1111 23.4606 12.9837 0.0000 -10572.2980 1403.9790 0.0000 0.0000 1753.6067 -7374.1568 297.2230 -9127.7636 -7432.9008 300.4138 -220.7569 -134.9865 30851.2988 83.9115 144.5025
ENERGY: 1500000 4.5759 17.5908 14.0385 0.0000 -10836.4350 1497.2455 0.0000 0.0000 1761.1974 -7541.7869 298.5095 -9302.9843 -7439.9205 299.9563 556.4758 642.6616 29998.6140 99.3669 153.9518
TCL: Running FEP window   2: Lambda1 0.95   Lambda2 0.8999999999999999 [dLambda -0.050000000000000044]
TCL: Setting parameter firsttimestep to 0
TCL: Setting parameter alchLambda to 0.95
Info: NONBONDED TABLE R-SQUARED SPACING: 0.0625
Info: NONBONDED TABLE SIZE: 705 POINTS
TCL: Setting parameter alchLambda2 to 0.8999999999999999
Info: NONBONDED TABLE R-SQUARED SPACING: 0.0625
Info: NONBONDED TABLE SIZE: 705 POINTS
TCL: Running for 1500000 steps
ETITLE: TS BOND ANGLE DIHED IMPRP ELECT VDW BOUNDARY MISC KINETIC TOTAL TEMP POTENTIAL TOTALAVG TEMPAVG PRESSURE GPRESSURE VOLUME PRESSAVG GPRESSAVG
ENERGY: 0 4.5759 17.5907 14.0385 0.0000 -10836.4812 1498.0793 0.0000 0.0000 1760.2757 -7541.9210 298.3533 -9302.1966 -7541.9210 298.3533 549.5031 636.4888 29998.6140 549.5031 636.4888
ENERGY: 300000 5.2009 19.2454 13.5982 0.0000 -10875.7220 1582.1108 0.0000 0.0000 1785.7593 -7469.8075 302.6726 -9255.5667 -7482.1061 297.7363 942.4590 1050.8131 30093.7972 169.6863 248.1003
ENERGY: 600000 4.4422 22.1849 15.8486 0.0000 -10814.7300 1557.2311 0.0000 0.0000 1781.9504 -7433.0728 302.0270 -9215.0232 -7440.1823 300.2901 1143.4068 1169.3222 30048.3397 139.3254 193.0327
ENERGY: 900000 2.4762 13.8991 11.1629 0.0000 -10684.0425 1425.6709 0.0000 0.0000 1781.0128 -7449.8206 301.8681 -9230.8334 -7434.2247 301.6292 66.9314 9.7916 30653.0124 259.1393 306.3514
ENERGY: 1200000 2.5157 22.5470 14.7403 0.0000 -10566.1808 1348.3154 0.0000 0.0000 1812.7143 -7365.3482 307.2413 -9178.0625 -7425.8979 301.8737 -269.3460 -262.9309 30263.1068 149.8087 195.1307
ENERGY: 1500000 2.4343 20.2330 14.0871 0.0000 -10437.8040 1326.9899 0.0000 0.0000 1762.2816 -7311.7780 298.6933 -9074.0597 -7418.1974 301.5686 -640.2304 -564.3530 30857.3109 109.4744 161.2534
TCL: Running FEP window   3: Lambda1 0.8999999999999999 Lambda2 0.8499999999999999 [dLambda -0.050000000000000044]
TCL: Setting parameter firsttimestep to 0
TCL: Setting parameter alchLambda to 0.8999999999999999
Info: NONBONDED TABLE R-SQUARED SPACING: 0.0625
Info: NONBONDED TABLE SIZE: 705 POINTS
TCL: Setting parameter alchLambda2 to 0.8499999999999999
Info: NONBONDED TABLE R-SQUARED SPACING: 0.0625
Info: NONBONDED TABLE SIZE: 705 POINTS
TCL: Running for 1500000 steps
ETITLE: TS BOND ANGLE DIHED IMPRP ELECT VDW BOUNDARY MISC KINETIC TOTAL TEMP POTENTIAL TOTALAVG TEMPAVG PRESSURE GPRESSURE VOLUME PRESSAVG GPRESSAVG
ENERGY: 0 2.4343 20.2331 14.0871 0.0000 -10437.8010 1327.8441 0.0000 0.0000 1761.4217 -7311.7807 298.5476 -9073.2024 -7311.7807 298.5476 -643.4163 -563.8229 30857.3109 -643.4163 -563.8229
ENERGY: 300000 1.8110 14.2117 13.2228 0.0000 -10764.8625 1474.2910 0.0000 0.0000 1746.0855 -7515.2405 295.9482 -9261.3259 -7393.0773 299.0078 397.2074 463.1433 30116.4834 -83.0546 -16.9900
ENERGY: 600000 1.4739 16.8617 13.6295 0.0000 -10546.3758 1298.4151 0.0000 0.0000 1811.0207 -7404.9748 306.9542 -9215.9955 -7413.6157 299.1184 -968.8330 -884.1787 30666.9405 -382.5961 -323.5309
ENERGY: 900000 1.5292 21.0901 11.7017 0.0000 -10625.4328 1473.4430 0.0000 0.0000 1810.0210 -7307.6477 306.7848 -9117.6688 -7423.5931 299.3802 541.4395 634.0942 30715.9063 -158.2184 -91.3046
ENERGY: 1200000 3.8808 18.6876 13.8800 0.0000 -10639.6815 1410.2901 0.0000 0.0000 1787.5938 -7405.3493 302.9835 -9192.9430 -7432.0272 299.1181 -248.1460 -158.2263 30527.3480 -200.1773 -140.8459
ENERGY: 1500000 2.3763 22.3372 11.1604 0.0000 -10624.1398 1476.6384 0.0000 0.0000 1793.8011 -7317.8265 304.0356 -9111.6276 -7430.5762 299.2661 960.5378 1048.6002 30270.6296 -120.8760 -63.8949
TCL: Running FEP window   4: Lambda1 0.8499999999999999 Lambda2 0.7999999999999998 [dLambda -0.050000000000000044]
TCL: Setting parameter firsttimestep to 0
TCL: Setting parameter alchLambda to 0.8499999999999999
Info: NONBONDED TABLE R-SQUARED SPACING: 0.0625
Info: NONBONDED TABLE SIZE: 705 POINTS
TCL: Setting parameter alchLambda2 to 0.7999999999999998
Info: NONBONDED TABLE R-SQUARED SPACING: 0.0625
Info: NONBONDED TABLE SIZE: 705 POINTS
TCL: Running for 1500000 steps
ETITLE: TS BOND ANGLE DIHED IMPRP ELECT VDW BOUNDARY MISC KINETIC TOTAL TEMP POTENTIAL TOTALAVG TEMPAVG PRESSURE GPRESSURE VOLUME PRESSAVG GPRESSAVG
ENERGY: 0 2.3763 22.3372 11.1604 0.0000 -10624.1226 1477.3230 0.0000 0.0000 1792.9424 -7317.9834 303.8901 -9110.9258 -7317.9834 303.8901 967.3144 1043.1470 30270.6296 967.3144 1043.1470
ENERGY: 300000 2.1010 15.4331 14.7621 0.0000 -10553.3595 1366.4696 0.0000 0.0000 1811.3298 -7343.2639 307.0066 -9154.5937 -7397.1735 301.1243 -349.4823 -248.5385 30769.2711 255.5644 333.1612
ENERGY: 600000 1.6533 18.5912 13.2571 0.0000 -10720.8404 1475.5409 0.0000 0.0000 1797.1748 -7414.6232 304.6074 -9211.7979 -7418.1098 302.0631 316.0580 397.7179 30485.3471 146.5653 219.8280
ENERGY: 900000 4.7961 15.5683 12.8047 0.0000 -10649.3163 1440.6627 0.0000 0.0000 1768.7969 -7406.6877 299.7976 -9175.4846 -7417.1650 301.1193 55.2842 99.5896 30802.3711 48.9245 119.5992
ENERGY: 1200000 6.0202 26.5405 11.8013 0.0000 -10708.4352 1411.8873 0.0000 0.0000 1760.3770 -7491.8089 298.3705 -9252.1859 -7432.1405 299.8215 -410.3228 -383.9618 30181.7200 -75.0252 -8.6634
ENERGY: 1500000 1.1939 15.9701 13.2712 0.0000 -10587.7749 1313.4870 0.0000 0.0000 1796.1081 -7447.7446 304.4266 -9243.8527 -7433.0860 299.5308 -991.3255 -916.5395 30480.3514 -166.0672 -98.8887
TCL: Running FEP window   5: Lambda1 0.7999999999999998 Lambda2 0.7499999999999998 [dLambda -0.050000000000000044]
TCL: Setting parameter firsttimestep to 0
TCL: Setting parameter alchLambda to 0.7999999999999998
Info: NONBONDED TABLE R-SQUARED SPACING: 0.0625
Info: NONBONDED TABLE SIZE: 705 POINTS
TCL: Setting parameter alchLambda2 to 0.7499999999999998
Info: NONBONDED TABLE R-SQUARED SPACING: 0.0625
Info: NONBONDED TABLE SIZE: 705 POINTS
TCL: Running for 1500000 steps
ETITLE: TS BOND ANGLE DIHED IMPRP ELECT VDW BOUNDARY MISC KINETIC TOTAL TEMP POTENTIAL TOTALAVG TEMPAVG PRESSURE GPRESSURE VOLUME PRESSAVG GPRESSAVG
ENERGY: 0 1.1939 15.9702 13.2712 0.0000 -10587.7822 1313.8673 0.0000 0.0000 1795.2114 -7448.2681 304.2747 -9243.4795 -7448.2681 304.2747 -1007.0681 -925.8014 30480.3514 -1007.0681 -925.8014
ENERGY: 300000 6.1326 19.6640 12.2991 0.0000 -10646.3668 1438.6997 0.0000 0.0000 1761.0485 -7408.5229 298.4843 -9169.5714 -7426.1548 301.0869 221.4291 275.8041 30173.0463 -245.8491 -203.7220
ENERGY: 600000 2.9939 23.1281 13.9547 0.0000 -10665.1559 1413.5888 0.0000 0.0000 1790.4489 -7421.0415 303.4674 -9211.4904 -7436.4862 303.3710 -466.9982 -444.2861 31187.2718 -434.7743 -387.3009
ENERGY: 900000 3.4241 18.5970 13.8803 0.0000 -10670.1354 1385.1441 0.0000 0.0000 1763.3239 -7485.7660 298.8700 -9249.0899 -7432.7305 302.5546 -452.6684 -392.1720 30250.2367 -429.3025 -386.9383
ENERGY: 1200000 2.0165 15.7624 12.9738 0.0000 -10694.9303 1407.5858 0.0000 0.0000 1757.8961 -7498.6957 297.9500 -9256.5918 -7433.9144 302.0101 -118.3478 -101.1553 30024.9044 -313.2528 -267.0903
ENERGY: 1500000 2.8070 19.9024 13.2687 0.0000 -10537.6308 1388.6683 0.0000 0.0000 1778.8247 -7334.1597 301.4972 -9112.9844 -7427.7010 301.6491 -150.4266 -132.6863 30998.2198 -256.1144 -204.7524
TCL: Running FEP window   6: Lambda1 0.7499999999999998 Lambda2 0.6999999999999997 [dLambda -0.050000000000000044]
TCL: Setting parameter firsttimestep to 0
TCL: Setting parameter alchLambda to 0.7499999999999998
Info: NONBONDED TABLE R-SQUARED SPACING: 0.0625
Info: NONBONDED TABLE SIZE: 705 POINTS
TCL: Setting parameter alchLambda2 to 0.6999999999999997
Info: NONBONDED TABLE R-SQUARED SPACING: 0.0625
Info: NONBONDED TABLE SIZE: 705 POINTS
TCL: Running for 1500000 steps
ETITLE: TS BOND ANGLE DIHED IMPRP ELECT VDW BOUNDARY MISC KINETIC TOTAL TEMP POTENTIAL TOTALAVG TEMPAVG PRESSURE GPRESSURE VOLUME PRESSAVG GPRESSAVG
ENERGY: 0 2.8070 19.9024 13.2687 0.0000 -10537.5980 1389.1018 0.0000 0.0000 1777.9517 -7334.5664 301.3493 -9112.5181 -7334.5664 301.3493 -215.0060 -138.2589 30998.2198 -215.0060 -138.2589
ENERGY: 300000 4.0847 18.2562 15.5086 0.0000 -10610.1537 1422.3330 0.0000 0.0000 1715.6241 -7434.3470 290.7852 -9149.9711 -7421.3799 296.4530 -185.1380 -114.4885 30680.1794 265.6241 317.6800
ENERGY: 600000 0.6734 20.5324 13.3284 0.0000 -10627.5669 1412.6499 0.0000 0.0000 1726.3140 -7454.0689 292.5971 -9180.3828 -7438.1398 297.0339 -426.6903 -330.6331 30926.6398 295.1938 357.6013
ENERGY: 900000 2.2464 20.7895 14.6122 0.0000 -10699.8175 1467.8110 0.0000 0.0000 1786.1217 -7408.2368 302.7340 -9194.3585 -7437.2735 297.6592 257.9963 317.5149 30507.2150 98.5534 164.4442
ENERGY: 1200000 2.6057 15.6722 17.6964 0.0000 -10744.9939 1457.4014 0.0000 0.0000 1795.2841 -7456.3342 304.2870 -9251.6183 -7444.5314 297.9970 262.3819 331.8940 30057.7322 33.0093 102.2300
ENERGY: 1500000 6.0061 21.0835 13.2637 0.0000 -10698.4691 1396.9174 0.0000 0.0000 1706.9686 -7554.2299 289.3182 -9261.1984 -7448.4370 297.9655 -685.9241 -656.3464 31019.6167 -54.0057 8.6638
TCL: Running FEP window   7: Lambda1 0.6999999999999997 Lambda2 0.6499999999999997 [dLambda -0.050000000000000044]
TCL: Setting parameter firsttimestep to 0
TCL: Setting parameter alchLambda to 0.6999999999999997
Info: NONBONDED TABLE R-SQUARED SPACING: 0.0625
Info: NONBONDED TABLE SIZE: 705 POINTS
TCL: Setting parameter alchLambda2 to 0.6499999999999997
Info: NONBONDED TABLE R-SQUARED SPACING: 0.0625
Info: NONBONDED TABLE SIZE: 705 POINTS
TCL: Running for 1500000 steps
ETITLE: TS BOND ANGLE DIHED IMPRP ELECT VDW BOUNDARY MISC KINETIC TOTAL TEMP POTENTIAL TOTALAVG TEMPAVG PRESSURE GPRESSURE VOLUME PRESSAVG GPRESSAVG
ENERGY: 0 6.0061 21.0835 13.2637 0.0000 -10698.5132 1397.4032 0.0000 0.0000 1706.1108 -7554.6459 289.1728 -9260.7567 -7554.6459 289.1728 -739.4421 -663.6641 31019.6167 -739.4421 -663.6641
ENERGY: 300000 3.5231 20.6092 14.4983 0.0000 -10595.6241 1428.0321 0.0000 0.0000 1727.5586 -7401.4027 292.8080 -9128.9613 -7478.1359 292.9138 217.1163 280.6106 30647.3601 -478.5977 -401.6536
ENERGY: 600000 4.3356 12.1954 14.1701 0.0000 -10581.6918 1344.1725 0.0000 0.0000 1765.8815 -7440.9367 299.3035 -9206.8182 -7474.8845 295.0028 -858.5631 -772.2362 30742.4685 -388.8165 -320.1757
ENERGY: 900000 1.7763 17.1277 12.5806 0.0000 -10652.1018 1385.1153 0.0000 0.0000 1800.3062 -7435.1957 305.1382 -9235.5019 -7477.1307 296.9139 -232.2911 -196.3501 30049.2449 -248.5850 -186.2791
ENERGY: 1200000 3.8782 21.6880 11.3766 0.0000 -10636.4180 1428.7913 0.0000 0.0000 1777.7103 -7392.9737 301.3084 -9170.6840 -7466.3200 297.2086 400.4686 451.4148 30173.3536 -145.1700 -85.1580
ENERGY: 1500000 3.9020 22.8662 15.0225 0.0000 -10549.7370 1365.7348 0.0000 0.0000 1840.3068 -7301.9046 311.9180 -9142.2115 -7448.9231 298.4153 -317.8369 -347.0099 30743.2546 -174.3915 -118.9542
TCL: Running FEP window   8: Lambda1 0.6499999999999997 Lambda2 0.5999999999999996 [dLambda -0.050000000000000044]
TCL: Setting parameter firsttimestep to 0
TCL: Setting parameter alchLambda to 0.6499999999999997
Info: NONBONDED TABLE R-SQUARED SPACING: 0.0625
Info: NONBONDED TABLE SIZE: 705 POINTS
TCL: Setting parameter alchLambda2 to 0.5999999999999996
Info: NONBONDED TABLE R-SQUARED SPACING: 0.0625
Info: NONBONDED TABLE SIZE: 705 POINTS
TCL: Running for 1500000 steps
ETITLE: TS BOND ANGLE DIHED IMPRP ELECT VDW BOUNDARY MISC KINETIC TOTAL TEMP POTENTIAL TOTALAVG TEMPAVG PRESSURE GPRESSURE VOLUME PRESSAVG GPRESSAVG
ENERGY: 0 3.9020 22.8662 15.0225 0.0000 -10549.7707 1366.0455 0.0000 0.0000 1839.4338 -7302.5006 311.7700 -9141.9344 -7302.5006 311.7700 -425.9415 -353.6274 30743.2546 -425.9415 -353.6274
ENERGY: 300000 2.7650 19.4275 17.4206 0.0000 -10668.2932 1389.7331 0.0000 0.0000 1756.2961 -7482.6509 297.6788 -9238.9470 -7416.3834 302.7942 -139.7193 -69.3058 29828.1216 -365.4436 -319.2818
ENERGY: 600000 1.8755 21.9865 11.3805 0.0000 -10674.9833 1353.0644 0.0000 0.0000 1766.2137 -7520.4627 299.3598 -9286.6764 -7409.2307 302.8711 -665.9432 -622.8122 30361.8006 -378.8056 -327.1334
ENERGY: 900000 4.7654 22.7074 12.6299 0.0000 -10607.3457 1396.5959 0.0000 0.0000 1771.5923 -7399.0547 300.2714 -9170.6470 -7417.0137 301.7882 -221.1970 -199.9041 30546.5292 -309.4099 -267.1354
ENERGY: 1200000 1.2293 20.1040 13.5022 0.0000 -10617.9226 1396.5164 0.0000 0.0000 1703.1717 -7483.3990 288.6746 -9186.5707 -7415.5918 301.0397 -228.3793 -148.6346 30667.9085 -294.1600 -245.7893
ENERGY: 1500000 4.4937 15.8106 16.7111 0.0000 -10593.8647 1427.0114 0.0000 0.0000 1728.1131 -7401.7249 292.9020 -9129.8379 -7425.6926 299.0267 272.0526 275.8719 30333.2650 -188.1478 -135.5114
TCL: Running FEP window   9: Lambda1 0.5999999999999996 Lambda2 0.5499999999999996 [dLambda -0.050000000000000044]
TCL: Setting parameter firsttimestep to 0
TCL: Setting parameter alchLambda to 0.5999999999999996
Info: NONBONDED TABLE R-SQUARED SPACING: 0.0625
Info: NONBONDED TABLE SIZE: 705 POINTS
TCL: Setting parameter alchLambda2 to 0.5499999999999996
Info: NONBONDED TABLE R-SQUARED SPACING: 0.0625
Info: NONBONDED TABLE SIZE: 705 POINTS
TCL: Running for 1500000 steps
ETITLE: TS BOND ANGLE DIHED IMPRP ELECT VDW BOUNDARY MISC KINETIC TOTAL TEMP POTENTIAL TOTALAVG TEMPAVG PRESSURE GPRESSURE VOLUME PRESSAVG GPRESSAVG
ENERGY: 0 4.4937 15.8106 16.7111 0.0000 -10593.8437 1426.5033 0.0000 0.0000 1727.2287 -7403.0965 292.7521 -9130.3251 -7403.0965 292.7521 178.2197 259.2147 30333.2650 178.2197 259.2147
ENERGY: 300000 3.3753 21.5283 14.4740 0.0000 -10537.9280 1341.1924 0.0000 0.0000 1777.3790 -7379.9791 301.2522 -9157.3581 -7387.7606 302.7862 -479.1339 -370.2981 30295.7517 -220.5236 -164.6815
ENERGY: 600000 4.4490 28.4269 11.8626 0.0000 -10626.8904 1484.8554 0.0000 0.0000 1746.8894 -7350.4072 296.0844 -9097.2966 -7387.6920 301.7126 458.3115 562.4824 30804.3430 -80.2079 -33.7428
ENERGY: 900000 2.6342 16.8721 12.3625 0.0000 -10758.6527 1432.9334 0.0000 0.0000 1796.5323 -7497.3182 304.4985 -9293.8505 -7404.0574 301.6996 -510.7438 -470.8524 30786.1732 32.6230 84.9686
ENERGY: 1200000 2.3409 19.9535 11.6461 0.0000 -10774.2943 1496.9245 0.0000 0.0000 1824.9844 -7418.4450 309.3210 -9243.4294 -7416.7597 301.5332 260.9033 346.1016 30608.3565 -6.5592 51.0129
ENERGY: 1500000 3.1316 17.6737 14.6563 0.0000 -10626.1059 1337.7471 0.0000 0.0000 1793.4447 -7459.4525 303.9752 -9252.8971 -7420.9266 302.1404 -753.2846 -724.0991 30377.9055 -54.6347 -0.2638
TCL: Running FEP window  10: Lambda1 0.5499999999999996 Lambda2 0.4999999999999996 [dLambda -0.04999999999999999]
TCL: Setting parameter firsttimestep to 0
TCL: Setting parameter alchLambda to 0.5499999999999996
Info: NONBONDED TABLE R-SQUARED SPACING: 0.0625
Info: NONBONDED TABLE SIZE: 705 POINTS
TCL: Setting parameter alchLambda2 to 0.4999999999999996
Info: NONBONDED TABLE R-SQUARED SPACING: 0.0625
Info: NONBONDED TABLE SIZE: 705 POINTS
TCL: Running for 1500000 steps
ETITLE: TS BOND ANGLE DIHED IMPRP ELECT VDW BOUNDARY MISC KINETIC TOTAL TEMP POTENTIAL TOTALAVG TEMPAVG PRESSURE GPRESSURE VOLUME PRESSAVG GPRESSAVG
ENERGY: 0 3.1316 17.6737 14.6563 0.0000 -10626.0284 1337.7693 0.0000 0.0000 1792.5320 -7460.2656 303.8205 -9252.7975 -7460.2656 303.8205 -815.9508 -737.0483 30377.9055 -815.9508 -737.0483
ENERGY: 300000 2.3231 16.7563 12.0793 0.0000 -10650.4590 1395.7292 0.0000 0.0000 1787.8518 -7435.7194 303.0273 -9223.5711 -7412.3574 306.4764 -209.1262 -124.9145 30248.6140 -252.6436 -193.2374
ENERGY: 600000 4.6350 17.9022 11.9087 0.0000 -10546.7251 1353.5711 0.0000 0.0000 1825.9359 -7332.7721 309.4822 -9158.7081 -7394.2805 305.2460 -209.7161 -165.1262 30220.4271 -196.6769 -132.9010
ENERGY: 900000 4.8403 19.6925 14.6106 0.0000 -10661.3321 1410.4207 0.0000 0.0000 1782.3727 -7429.3953 302.0986 -9211.7680 -7387.4826 304.3979 -361.0504 -258.2664 30448.4642 -353.2093 -282.8314
ENERGY: 1200000 1.9729 14.3057 13.3587 0.0000 -10754.3879 1449.1710 0.0000 0.0000 1835.2874 -7440.2920 311.0672 -9275.5795 -7394.7865 304.4103 107.9380 183.2999 30247.8519 -294.1127 -225.4572
ENERGY: 1500000 3.2723 23.2287 14.0705 0.0000 -10501.0387 1349.7221 0.0000 0.0000 1772.8851 -7337.8600 300.4905 -9110.7451 -7392.5856 303.8288 -574.6685 -527.1446 30884.0012 -321.1408 -260.3196
TCL: Running FEP window  11: Lambda1 0.4999999999999996 Lambda2 0.4499999999999996 [dLambda -0.04999999999999999]
TCL: Setting parameter firsttimestep to 0
TCL: Setting parameter alchLambda to 0.4999999999999996
Info: NONBONDED TABLE R-SQUARED SPACING: 0.0625
Info: NONBONDED TABLE SIZE: 705 POINTS
TCL: Setting parameter alchLambda2 to 0.4499999999999996
Info: NONBONDED TABLE R-SQUARED SPACING: 0.0625
Info: NONBONDED TABLE SIZE: 705 POINTS
TCL: Running for 1500000 steps
ETITLE: TS BOND ANGLE DIHED IMPRP ELECT VDW BOUNDARY MISC KINETIC TOTAL TEMP POTENTIAL TOTALAVG TEMPAVG PRESSURE GPRESSURE VOLUME PRESSAVG GPRESSAVG
ENERGY: 0 3.2723 23.2287 14.0705 0.0000 -10501.0531 1349.2027 0.0000 0.0000 1771.9802 -7339.2987 300.3371 -9111.2788 -7339.2987 300.3371 -614.5109 -544.0724 30884.0012 -614.5109 -544.0724
ENERGY: 300000 1.3655 18.9083 13.7667 0.0000 -10639.2652 1456.9594 0.0000 0.0000 1781.1456 -7367.1197 301.8906 -9148.2653 -7420.1879 298.5785 431.9794 513.7626 30185.8972 -50.5102 20.3497
ENERGY: 600000 4.6555 21.1432 14.0050 0.0000 -10564.6157 1365.4745 0.0000 0.0000 1843.4679 -7315.8696 312.4538 -9159.3375 -7413.8734 301.6068 -355.7327 -326.2442 30228.9994 -48.9718 19.9785
ENERGY: 900000 0.6855 14.5342 17.2591 0.0000 -10711.9038 1483.7631 0.0000 0.0000 1791.2277 -7404.4342 303.5994 -9195.6619 -7418.5696 301.4597 517.5477 525.9935 30109.9009 155.3017 219.9765
ENERGY: 1200000 2.4436 15.8993 13.9633 0.0000 -10738.5584 1490.9955 0.0000 0.0000 1767.4824 -7447.7743 299.5748 -9215.2567 -7424.7567 301.4306 471.7762 446.0831 30687.1877 152.0232 217.8713
ENERGY: 1500000 3.3431 18.0756 14.5818 0.0000 -10652.2115 1458.4862 0.0000 0.0000 1879.4370 -7278.2878 318.5503 -9157.7249 -7426.3242 302.3019 182.9108 280.1425 30849.5195 113.0634 178.9093
TCL: Running FEP window  12: Lambda1 0.4499999999999996 Lambda2 0.39999999999999963 [dLambda -0.04999999999999999]
TCL: Setting parameter firsttimestep to 0
TCL: Setting parameter alchLambda to 0.4499999999999996
Info: NONBONDED TABLE R-SQUARED SPACING: 0.0625
Info: NONBONDED TABLE SIZE: 705 POINTS
TCL: Setting parameter alchLambda2 to 0.39999999999999963
Info: NONBONDED TABLE R-SQUARED SPACING: 0.0625
Info: NONBONDED TABLE SIZE: 705 POINTS
TCL: Running for 1500000 steps
ETITLE: TS BOND ANGLE DIHED IMPRP ELECT VDW BOUNDARY MISC KINETIC TOTAL TEMP POTENTIAL TOTALAVG TEMPAVG PRESSURE GPRESSURE VOLUME PRESSAVG GPRESSAVG
ENERGY: 0 3.3431 18.0756 14.5818 0.0000 -10652.2123 1459.1839 0.0000 0.0000 1878.5524 -7278.4755 318.4003 -9157.0279 -7278.4755 318.4003 185.6779 276.0923 30849.5195 185.6779 276.0923
ENERGY: 300000 0.9376 15.3928 14.5245 0.0000 -10723.4881 1471.5918 0.0000 0.0000 1694.4805 -7526.5608 287.2015 -9221.0413 -7436.2189 298.5616 377.3537 422.3482 29898.1940 72.5754 144.6665
ENERGY: 600000 2.0169 16.4507 12.7421 0.0000 -10782.4164 1492.6618 0.0000 0.0000 1746.3296 -7512.2153 295.9896 -9258.5449 -7459.3062 297.3801 270.1779 262.5439 30544.8893 29.9213 87.2712
ENERGY: 900000 2.4204 16.7318 12.3571 0.0000 -10590.9897 1380.7567 0.0000 0.0000 1733.1444 -7445.5792 293.7548 -9178.7236 -7454.4239 297.2844 -477.4008 -432.5108 30602.7556 -19.6970 46.0071
ENERGY: 1200000 2.6962 23.1019 12.8069 0.0000 -10707.7580 1446.2460 0.0000 0.0000 1817.1476 -7405.7593 307.9927 -9222.9069 -7452.8333 298.3725 -163.3704 -97.5048 30630.8355 -115.0334 -43.8918
ENERGY: 1500000 4.0151 18.3322 12.4909 0.0000 -10793.3172 1519.3718 0.0000 0.0000 1742.3926 -7496.7146 295.3223 -9239.1072 -7450.7777 298.4215 333.0727 452.0674 30435.1749 -129.4726 -62.1571
TCL: Running FEP window  13: Lambda1 0.39999999999999963 Lambda2 0.34999999999999964 [dLambda -0.04999999999999999]
TCL: Setting parameter firsttimestep to 0
TCL: Setting parameter alchLambda to 0.39999999999999963
Info: NONBONDED TABLE R-SQUARED SPACING: 0.0625
Info: NONBONDED TABLE SIZE: 705 POINTS
TCL: Setting parameter alchLambda2 to 0.34999999999999964
Info: NONBONDED TABLE R-SQUARED SPACING: 0.0625
Info: NONBONDED TABLE SIZE: 705 POINTS
TCL: Running for 1500000 steps
ETITLE: TS BOND ANGLE DIHED IMPRP ELECT VDW BOUNDARY MISC KINETIC TOTAL TEMP POTENTIAL TOTALAVG TEMPAVG PRESSURE GPRESSURE VOLUME PRESSAVG GPRESSAVG
ENERGY: 0 4.0151 18.3322 12.4909 0.0000 -10793.3197 1519.8569 0.0000 0.0000 1741.5264 -7497.0982 295.1755 -9238.6246 -7497.0982 295.1755 354.7399 447.6375 30435.1749 354.7399 447.6375
ENERGY: 300000 1.2911 33.0217 11.8292 0.0000 -10591.7151 1396.8586 0.0000 0.0000 1777.4351 -7371.2793 301.2617 -9148.7144 -7419.3686 298.0076 -355.4865 -306.7572 31113.1450 -265.2494 -212.5055
ENERGY: 600000 3.9300 22.6127 11.7408 0.0000 -10666.8702 1475.0395 0.0000 0.0000 1781.1801 -7372.3671 301.8965 -9153.5472 -7423.2502 296.5685 22.1911 71.9307 30822.2478 -168.5501 -117.5525
ENERGY: 900000 4.1222 14.9035 16.0995 0.0000 -10563.6828 1353.7493 0.0000 0.0000 1804.8857 -7369.9226 305.9144 -9174.8083 -7410.9832 298.8972 -312.4614 -299.1930 30171.9577 -114.6202 -60.8996
ENERGY: 1200000 1.3106 20.1149 12.8087 0.0000 -10796.2159 1434.3732 0.0000 0.0000 1771.3979 -7556.2107 300.2385 -9327.6086 -7414.2037 299.5860 -408.9190 -313.5016 30251.4051 -99.6821 -39.4968
ENERGY: 1500000 2.3935 25.6572 11.6003 0.0000 -10632.2058 1492.5452 0.0000 0.0000 1797.4289 -7302.5806 304.6505 -9100.0096 -7412.5844 299.6877 495.4251 615.6954 30971.1367 -92.7066 -22.9321
TCL: Running FEP window  14: Lambda1 0.34999999999999964 Lambda2 0.29999999999999966 [dLambda -0.04999999999999999]
TCL: Setting parameter firsttimestep to 0
TCL: Setting parameter alchLambda to 0.34999999999999964
Info: NONBONDED TABLE R-SQUARED SPACING: 0.0625
Info: NONBONDED TABLE SIZE: 705 POINTS
TCL: Setting parameter alchLambda2 to 0.29999999999999966
Info: NONBONDED TABLE R-SQUARED SPACING: 0.0625
Info: NONBONDED TABLE SIZE: 705 POINTS
TCL: Running for 1500000 steps
ETITLE: TS BOND ANGLE DIHED IMPRP ELECT VDW BOUNDARY MISC KINETIC TOTAL TEMP POTENTIAL TOTALAVG TEMPAVG PRESSURE GPRESSURE VOLUME PRESSAVG GPRESSAVG
ENERGY: 0 2.3935 25.6572 11.6003 0.0000 -10632.2073 1493.3338 0.0000 0.0000 1796.5467 -7302.6757 304.5010 -9099.2224 -7302.6757 304.5010 532.2726 616.9927 30971.1367 532.2726 616.9927
ENERGY: 300000 1.6635 16.2031 13.8004 0.0000 -10612.7128 1366.3005 0.0000 0.0000 1785.4736 -7429.2716 302.6242 -9214.7452 -7367.3682 303.5755 -660.4864 -561.0186 30625.3407 35.6887 128.0946
ENERGY: 600000 3.4577 18.8938 16.6977 0.0000 -10698.9994 1467.6506 0.0000 0.0000 1743.2654 -7449.0342 295.4702 -9192.2996 -7394.6373 301.3531 260.7496 289.5578 30213.0844 -29.3908 55.2813
ENERGY: 900000 4.2811 16.8584 14.9579 0.0000 -10616.1527 1396.6766 0.0000 0.0000 1745.8714 -7437.5073 295.9119 -9183.3787 -7416.1609 299.8491 -275.6515 -223.4847 30310.8289 -68.4374 9.9021
ENERGY: 1200000 2.4498 20.6872 14.0709 0.0000 -10718.3267 1385.0165 0.0000 0.0000 1739.9294 -7556.1731 294.9048 -9296.1024 -7435.4150 298.4005 -777.7826 -743.4701 30165.1065 -75.0382 -5.7255
ENERGY: 1500000 2.9229 18.7135 13.3213 0.0000 -10716.1307 1383.8147 0.0000 0.0000 1791.3768 -7505.9814 303.6247 -9297.3583 -7440.0744 299.0845 -814.4731 -723.7658 30538.4083 -111.9200 -47.1728
TCL: Running FEP window  15: Lambda1 0.29999999999999966 Lambda2 0.24999999999999967 [dLambda -0.04999999999999999]
TCL: Setting parameter firsttimestep to 0
TCL: Setting parameter alchLambda to 0.29999999999999966
Info: NONBONDED TABLE R-SQUARED SPACING: 0.0625
Info: NONBONDED TABLE SIZE: 705 POINTS
TCL: Setting parameter alchLambda2 to 0.24999999999999967
Info: NONBONDED TABLE R-SQUARED SPACING: 0.0625
Info: NONBONDED TABLE SIZE: 705 POINTS
TCL: Running for 1500000 steps
ETITLE: TS BOND ANGLE DIHED IMPRP ELECT VDW BOUNDARY MISC KINETIC TOTAL TEMP POTENTIAL TOTALAVG TEMPAVG PRESSURE GPRESSURE VOLUME PRESSAVG GPRESSAVG
ENERGY: 0 2.9229 18.7135 13.3213 0.0000 -10716.1307 1383.8583 0.0000 0.0000 1790.4881 -7506.8265 303.4741 -9297.3146 -7506.8265 303.4741 -828.5455 -732.9641 30538.4083 -828.5455 -732.9641
ENERGY: 300000 3.5193 21.2542 13.3758 0.0000 -10657.4628 1444.2875 0.0000 0.0000 1848.2121 -7326.8139 313.2579 -9175.0260 -7432.7037 304.4192 686.7372 775.1356 29742.0674 -309.3853 -242.5896
ENERGY: 600000 3.2975 21.3731 13.2922 0.0000 -10792.9415 1544.8928 0.0000 0.0000 1822.2218 -7387.8640 308.8527 -9210.0858 -7432.2635 304.0317 636.4180 624.4314 30436.7841 -217.6018 -172.7551
ENERGY: 900000 6.3968 18.0946 13.4445 0.0000 -10747.8337 1421.7417 0.0000 0.0000 1805.0347 -7483.1213 305.9396 -9288.1561 -7445.9195 304.0419 -412.5562 -354.4381 30420.6717 -79.8691 -21.8309
ENERGY: 1200000 2.1614 20.0019 11.2839 0.0000 -10699.1772 1432.1634 0.0000 0.0000 1721.5011 -7512.0654 291.7813 -9233.5665 -7460.5913 300.6242 -235.3619 -130.9628 30113.7328 -55.8516 12.0388
ENERGY: 1500000 3.7744 19.0698 12.7897 0.0000 -10716.5751 1380.8561 0.0000 0.0000 1760.9080 -7539.1770 298.4605 -9300.0850 -7463.2833 300.2972 -870.2167 -784.5448 30402.0856 -92.4982 -28.8828
TCL: Running FEP window  16: Lambda1 0.24999999999999967 Lambda2 0.19999999999999968 [dLambda -0.04999999999999999]
TCL: Setting parameter firsttimestep to 0
TCL: Setting parameter alchLambda to 0.24999999999999967
Info: NONBONDED TABLE R-SQUARED SPACING: 0.0625
Info: NONBONDED TABLE SIZE: 705 POINTS
TCL: Setting parameter alchLambda2 to 0.19999999999999968
Info: NONBONDED TABLE R-SQUARED SPACING: 0.0625
Info: NONBONDED TABLE SIZE: 705 POINTS
TCL: Running for 1500000 steps
ETITLE: TS BOND ANGLE DIHED IMPRP ELECT VDW BOUNDARY MISC KINETIC TOTAL TEMP POTENTIAL TOTALAVG TEMPAVG PRESSURE GPRESSURE VOLUME PRESSAVG GPRESSAVG
ENERGY: 0 3.7744 19.0698 12.7897 0.0000 -10716.5739 1381.2397 0.0000 0.0000 1760.0496 -7539.6507 298.3150 -9299.7003 -7539.6507 298.3150 -867.5031 -787.4074 30402.0856 -867.5031 -787.4074
ENERGY: 300000 2.0029 15.6815 12.8629 0.0000 -10702.3022 1498.7360 0.0000 0.0000 1808.7352 -7364.2836 306.5668 -9173.0188 -7484.5021 298.1784 668.8475 711.2818 30124.0308 -249.2712 -189.0998
ENERGY: 600000 3.4685 14.4903 14.0045 0.0000 -10550.8523 1435.3712 0.0000 0.0000 1743.4989 -7340.0189 295.5098 -9083.5179 -7471.8947 296.2397 324.7594 382.7135 30328.7239 -110.8641 -39.7049
ENERGY: 900000 3.3001 20.8599 12.3266 0.0000 -10910.1776 1540.1236 0.0000 0.0000 1794.4761 -7539.0913 304.1500 -9333.5675 -7468.5322 298.0463 348.6436 416.7549 30322.8010 -27.4140 42.7390
ENERGY: 1200000 5.6936 24.7839 12.8579 0.0000 -10842.7126 1514.9875 0.0000 0.0000 1843.9824 -7440.4073 312.5410 -9284.3896 -7453.0025 300.5898 308.8476 352.2828 30314.3114 -25.8233 38.9790
ENERGY: 1500000 4.2086 20.0531 13.9083 0.0000 -10633.0571 1467.2279 0.0000 0.0000 1752.7165 -7374.9426 297.0721 -9127.6591 -7446.7536 300.5960 472.3603 620.2659 29825.7212 -35.2881 31.2891
TCL: Running FEP window  17: Lambda1 0.19999999999999968 Lambda2 0.1499999999999997 [dLambda -0.04999999999999999]
TCL: Setting parameter firsttimestep to 0
TCL: Setting parameter alchLambda to 0.19999999999999968
Info: NONBONDED TABLE R-SQUARED SPACING: 0.0625
Info: NONBONDED TABLE SIZE: 705 POINTS
TCL: Setting parameter alchLambda2 to 0.1499999999999997
Info: NONBONDED TABLE R-SQUARED SPACING: 0.0625
Info: NONBONDED TABLE SIZE: 705 POINTS
TCL: Running for 1500000 steps
ETITLE: TS BOND ANGLE DIHED IMPRP ELECT VDW BOUNDARY MISC KINETIC TOTAL TEMP POTENTIAL TOTALAVG TEMPAVG PRESSURE GPRESSURE VOLUME PRESSAVG GPRESSAVG
ENERGY: 0 4.2086 20.0531 13.9083 0.0000 -10633.0578 1467.7912 0.0000 0.0000 1751.8425 -7375.2541 296.9240 -9127.0966 -7375.2541 296.9240 536.0824 618.0252 29825.7212 536.0824 618.0252
ENERGY: 300000 5.8311 20.0818 13.6786 0.0000 -10558.7049 1355.4126 0.0000 0.0000 1802.5557 -7361.1451 305.5195 -9163.7008 -7426.6356 299.0576 -763.7498 -725.6801 30377.2534 -251.2036 -188.4019
ENERGY: 600000 1.9634 23.8389 13.4601 0.0000 -10751.7114 1517.3576 0.0000 0.0000 1782.5191 -7412.5721 302.1234 -9195.0913 -7431.7364 299.0123 770.7091 822.2341 30041.6985 -13.5844 53.7510
ENERGY: 900000 3.0457 21.6394 12.8292 0.0000 -10675.8602 1440.2719 0.0000 0.0000 1778.6475 -7419.4265 301.4672 -9198.0740 -7442.6959 299.2114 -207.8646 -166.6939 30591.4973 -71.4898 -3.4543
ENERGY: 1200000 3.5612 20.6742 11.5633 0.0000 -10696.9352 1426.1683 0.0000 0.0000 1809.4886 -7425.4796 306.6945 -9234.9682 -7441.1557 299.9903 -203.5858 -133.3917 30108.3436 -38.9989 24.5825
ENERGY: 1500000 4.5335 11.1506 13.1024 0.0000 -10736.5235 1433.4834 0.0000 0.0000 1804.3270 -7469.9265 305.8197 -9274.2535 -7446.8428 300.5039 -403.5793 -357.3135 30387.5703 -99.7320 -39.3438
TCL: Running FEP window  18: Lambda1 0.1499999999999997 Lambda2 0.09999999999999969 [dLambda -0.05 ]
TCL: Setting parameter firsttimestep to 0
TCL: Setting parameter alchLambda to 0.1499999999999997
Info: NONBONDED TABLE R-SQUARED SPACING: 0.0625
Info: NONBONDED TABLE SIZE: 705 POINTS
TCL: Setting parameter alchLambda2 to 0.09999999999999969
Info: NONBONDED TABLE R-SQUARED SPACING: 0.0625
Info: NONBONDED TABLE SIZE: 705 POINTS
TCL: Running for 1500000 steps
ETITLE: TS BOND ANGLE DIHED IMPRP ELECT VDW BOUNDARY MISC KINETIC TOTAL TEMP POTENTIAL TOTALAVG TEMPAVG PRESSURE GPRESSURE VOLUME PRESSAVG GPRESSAVG
ENERGY: 0 4.5335 11.1507 13.1024 0.0000 -10736.5244 1433.2642 0.0000 0.0000 1803.4296 -7471.0440 305.6676 -9274.4735 -7471.0440 305.6676 -447.7789 -365.1249 30387.5703 -447.7789 -365.1249
ENERGY: 300000 2.8405 20.3682 15.1572 0.0000 -10873.2533 1455.7502 0.0000 0.0000 1781.4706 -7597.6665 301.9457 -9379.1372 -7504.8177 299.1347 -352.1013 -316.8057 30332.1966 31.3473 119.3599
ENERGY: 600000 4.2435 16.0278 13.4008 0.0000 -10803.1177 1464.3271 0.0000 0.0000 1678.6979 -7626.4206 284.5265 -9305.1186 -7493.4873 296.5440 -29.9158 11.8196 29882.5469 14.8978 74.3060
ENERGY: 900000 1.6027 13.7698 13.9041 0.0000 -10601.7393 1343.1777 0.0000 0.0000 1768.3839 -7460.9012 299.7276 -9229.2851 -7483.7126 297.1532 -927.3048 -866.8385 30616.0914 0.4588 58.7794
ENERGY: 1200000 2.0327 19.0417 16.2474 0.0000 -10683.4318 1480.2092 0.0000 0.0000 1873.8743 -7292.0265 317.6074 -9165.9008 -7457.9910 300.0433 484.8326 547.4609 30374.2136 40.9530 105.4527
ENERGY: 1500000 3.6138 16.2872 17.1929 0.0000 -10794.0504 1524.2967 0.0000 0.0000 1752.0219 -7480.6378 296.9544 -9232.6598 -7456.5724 300.5313 420.8859 564.6787 30247.0901 90.2198 157.0323
TCL: Running FEP window  19: Lambda1 0.09999999999999969 Lambda2 0.049999999999999684 [dLambda -0.05 ]
TCL: Setting parameter firsttimestep to 0
TCL: Setting parameter alchLambda to 0.09999999999999969
Info: NONBONDED TABLE R-SQUARED SPACING: 0.0625
Info: NONBONDED TABLE SIZE: 705 POINTS
TCL: Setting parameter alchLambda2 to 0.049999999999999684
Info: NONBONDED TABLE R-SQUARED SPACING: 0.0625
Info: NONBONDED TABLE SIZE: 705 POINTS
TCL: Running for 1500000 steps
ETITLE: TS BOND ANGLE DIHED IMPRP ELECT VDW BOUNDARY MISC KINETIC TOTAL TEMP POTENTIAL TOTALAVG TEMPAVG PRESSURE GPRESSURE VOLUME PRESSAVG GPRESSAVG
ENERGY: 0 3.6138 16.2872 17.1929 0.0000 -10794.0502 1522.8625 0.0000 0.0000 1751.1531 -7482.9406 296.8071 -9234.0937 -7482.9406 296.8071 489.7316 555.0862 30247.0901 489.7316 555.0862
ENERGY: 300000 1.4182 20.7702 11.4407 0.0000 -10677.7246 1412.5255 0.0000 0.0000 1728.8675 -7502.7024 293.0299 -9231.5699 -7432.2729 296.6149 -293.8585 -264.3711 30448.2827 108.1636 163.1200
ENERGY: 600000 2.9196 17.3466 11.3291 0.0000 -10579.6536 1362.6703 0.0000 0.0000 1735.9155 -7449.4725 294.2245 -9185.3880 -7429.4343 298.2480 -756.4835 -666.3507 30701.2643 -112.0526 -52.2697
ENERGY: 900000 4.0528 18.9725 14.8347 0.0000 -10678.4133 1427.8361 0.0000 0.0000 1763.1930 -7449.5242 298.8478 -9212.7172 -7426.2434 298.4404 -355.0271 -260.5880 30395.7539 -107.1198 -41.1601
ENERGY: 1200000 3.3193 23.6237 10.0389 0.0000 -10703.7292 1383.7974 0.0000 0.0000 1723.6273 -7559.3228 292.1417 -9282.9501 -7438.3068 298.2243 -490.9967 -407.5678 29707.1143 -147.1633 -77.3903
ENERGY: 1500000 1.3458 17.8174 14.6229 0.0000 -10631.9994 1445.2899 0.0000 0.0000 1759.5556 -7393.3679 298.2313 -9152.9235 -7433.6299 298.3893 321.5267 364.7672 29992.0928 -133.4647 -63.2207
TCL: Running FEP window  20: Lambda1 0.049999999999999684 Lambda2 0.0    [dLambda -0.049999999999999684]
TCL: Setting parameter firsttimestep to 0
TCL: Setting parameter alchLambda to 0.049999999999999684
Info: NONBONDED TABLE R-SQUARED SPACING: 0.0625
Info: NONBONDED TABLE SIZE: 705 POINTS
TCL: Setting parameter alchLambda2 to 0.0
Info: NONBONDED TABLE R-SQUARED SPACING: 0.0625
Info: NONBONDED TABLE SIZE: 705 POINTS
TCL: Running for 1500000 steps
ETITLE: TS BOND ANGLE DIHED IMPRP ELECT VDW BOUNDARY MISC KINETIC TOTAL TEMP POTENTIAL TOTALAVG TEMPAVG PRESSURE GPRESSURE VOLUME PRESSAVG GPRESSAVG
ENERGY: 0 1.3458 17.8173 14.6229 0.0000 -10631.9990 1445.9131 0.0000 0.0000 1758.7216 -7393.5783 298.0899 -9152.2999 -7393.5783 298.0899 301.1774 363.6967 29992.0928 301.1774 363.6967
ENERGY: 300000 0.4497 18.7899 12.0841 0.0000 -10686.2607 1448.0201 0.0000 0.0000 1778.2695 -7428.6473 301.4031 -9206.9169 -7399.3349 300.2799 -127.7840 -81.9885 30494.4876 76.6250 140.2123
ENERGY: 600000 1.6693 12.5174 17.1808 0.0000 -10597.6956 1341.9283 0.0000 0.0000 1784.6344 -7439.7653 302.4819 -9224.3997 -7399.8007 301.0371 -658.8843 -638.9866 30032.8040 -227.7522 -167.4673
ENERGY: 900000 5.4386 13.2847 15.5430 0.0000 -10702.5424 1459.8014 0.0000 0.0000 1738.4704 -7470.0043 294.6575 -9208.4747 -7422.8326 300.3731 -371.0987 -277.3587 30650.2017 -213.6541 -146.9254
ENERGY: 1200000 3.1345 15.5206 15.6200 0.0000 -10601.1066 1397.6830 0.0000 0.0000 1761.6992 -7407.4493 298.5946 -9169.1485 -7433.3271 299.4830 -437.6316 -384.2888 30758.3901 -178.4299 -114.8527
ENERGY: 1500000 1.4723 21.1490 11.9881 0.0000 -10617.7240 1466.7301 0.0000 0.0000 1760.1789 -7356.2056 298.3369 -9116.3845 -7434.8921 298.5705 296.7705 333.5395 30515.9418 -76.3591 -8.3483
TCL: Exiting due to exit command.
