Info: SIMULATION PARAMETERS:
Info: TIMESTEP               2
Info: NUMBER OF STEPS        0
Info: STEPS PER CYCLE        10
Info: PERIODIC CELL BASIS 1  30.9165 0 0
Info: PERIODIC CELL BASIS 2  0 30.6603 0
Info: PERIODIC CELL BASIS 3  0 0 31.9884
Info: PERIODIC CELL CENTER   0 0 0
Info: WRAPPING WATERS AROUND PERIODIC BOUNDARIES ON OUTPUT.
Info: WRAPPING ALL CLUSTERS AROUND PERIODIC BOUNDARIES ON OUTPUT.
Info: FIRST LDB TIMESTEP     50
Info: LAST LDB TIMESTEP     -1
Info: HOM BACKGROUND SCALING 1
Info: PME BACKGROUND SCALING 1
Info: MIN ATOMS PER PATCH    40
Info: EMPTY PATCH LOAD       40 ATOMS
Info: VELOCITY FILE          mobley_8522124_equil.vel
Info: CENTER OF MASS MOVING INITIALLY? NO
Info: DIELECTRIC             1
Info: EXCLUDE                SCALED ONE-FOUR
Info: 1-4 ELECTROSTATICS SCALED BY 0.833333
Info: MODIFIED 1-4 VDW PARAMETERS WILL BE USED
Info: DCD FILENAME           mobley_8522124_prod.dcd
Info: DCD FREQUENCY          100000
Info: DCD FIRST STEP         100000
Info: DCD FILE WILL CONTAIN UNIT CELL DATA
Info: XST FILENAME           mobley_8522124_prod.xst
Info: XST FREQUENCY          100000
Info: NO VELOCITY DCD OUTPUT
Info: NO FORCE DCD OUTPUT
Info: OUTPUT FILENAME        mobley_8522124_prod
Info: BINARY OUTPUT FILES WILL BE USED
Info: RESTART FILENAME       mobley_8522124_prod.restart
Info: RESTART FREQUENCY      100000
Info: BINARY RESTART FILES WILL BE USED
Info: CUTOFF                 9
Info: PAIRLIST DISTANCE      11
Info: PAIRLIST SHRINK RATE   0.01
Info: PAIRLIST GROW RATE     0.01
Info: PAIRLIST TRIGGER       0.3
Info: PAIRLISTS PER CYCLE    2
Info: PAIRLISTS ENABLED
Info: MARGIN                 2
Info: HYDROGEN GROUP CUTOFF  2.5
Info: PATCH DIMENSION        15.5
Info: ENERGY OUTPUT STEPS    100000
Info: ENERGY EVALUATION STEPS    100000
Info: OUTPUT ENERGY PRECISION 4
Info: CROSSTERM ENERGY INCLUDED IN DIHEDRAL
Info: TIMING OUTPUT STEPS    1000000
Info: PRESSURE OUTPUT STEPS  100000
Info: ALCHEMICAL FEP ON
Info: FEP CURRENT LAMBDA VALUE     1
Info: FEP COMPARISON LAMBDA VALUE  0.95
Info: FEP INTRA-ALCHEMICAL NON-BONDED INTERACTIONS WILL BE RETAINED
Info: FEP INTRA-ALCHEMICAL BONDED INTERACTIONS WILL BE RETAINED
Info: FEP VDW SHIFTING COEFFICIENT 5
Info: FEP ELEC. ACTIVE FOR ANNIHILATED PARTICLES BETWEEN LAMBDA = 0 AND LAMBDA = 0.5
Info: FEP ELEC. ACTIVE FOR EXNIHILATED PARTICLES BETWEEN LAMBDA = 0.5 AND LAMBDA = 1
Info: FEP VDW ACTIVE FOR ANNIHILATED PARTICLES BETWEEN LAMBDA = 0 AND LAMBDA = 1
Info: FEP VDW ACTIVE FOR EXNIHILATED PARTICLES BETWEEN LAMBDA = 0 AND LAMBDA = 1
Info: FEP BOND ACTIVE FOR ANNIHILATED PARTICLES BETWEEN LAMBDA = 1 AND LAMBDA = 1
Info: FEP BOND ACTIVE FOR EXNIHILATED PARTICLES BETWEEN LAMBDA = 0 AND LAMBDA = 0
Info: LANGEVIN DYNAMICS ACTIVE
Info: LANGEVIN TEMPERATURE   300
Info: LANGEVIN USING BBK INTEGRATOR
Info: LANGEVIN DAMPING COEFFICIENT IS 1 INVERSE PS
Info: LANGEVIN DYNAMICS APPLIED TO HYDROGENS
Info: LANGEVIN PISTON PRESSURE CONTROL ACTIVE
Info:        TARGET PRESSURE IS 1.01325 BAR
Info:     OSCILLATION PERIOD IS 50 FS
Info:             DECAY TIME IS 25 FS
Info:     PISTON TEMPERATURE IS 300 K
Info:       PRESSURE CONTROL IS GROUP-BASED
Info:    INITIAL STRAIN RATE IS -0.000103938 -0.000103938 -0.000103938
Info:       CELL FLUCTUATION IS ISOTROPIC
Info: PARTICLE MESH EWALD (PME) ACTIVE
Info: PME TOLERANCE               1e-06
Info: PME EWALD COEFFICIENT       0.348832
Info: PME INTERPOLATION ORDER     4
Info: PME GRID DIMENSIONS         32 32 32
Info: PME MAXIMUM GRID SPACING    1
Info: PME CALCULATION WILL BE PERFORMED ON GPU
Info: FULL ELECTROSTATIC EVALUATION FREQUENCY      2
Info: USING VERLET I (r-RESPA) MTS SCHEME.
Info: C1 SPLITTING OF LONG RANGE ELECTROSTATICS
Info: PLACING ATOMS IN PATCHES BY HYDROGEN GROUPS
Info: RIGID BONDS TO HYDROGEN : ALL
Info:         ERROR TOLERANCE : 1e-08
Info:          MAX ITERATIONS : 100
Info: RIGID WATER USING SETTLE ALGORITHM
Info: RANDOM NUMBER SEED     1743978667
Info: USE HYDROGEN BONDS?    NO
Info: Using AMBER format force field!
Info: AMBER PARM FILE        mobley_8522124.prmtop
Info: COORDINATE PDB         mobley_8522124.pdb
Info: Exclusions will be read from PARM file!
Info: SCNB (VDW SCALING)     2
Info: USING ARITHMETIC MEAN TO COMBINE L-J SIGMA PARAMETERS
Info: BINARY COORDINATES     mobley_8522124_equil.coor
Info: SUMMARY OF PARAMETERS:
Info: 7 BONDS
Info: 7 ANGLES
Info:   7 HARMONIC
Info:   0 COSINE-BASED
Info: 7 DIHEDRAL
Info: 0 IMPROPER
Info: 0 CROSSTERM
Info: 0 VDW
Info: 21 VDW_PAIRS
Info: 0 NBTHOLE_PAIRS
Info: To read alchdata from file: mobley_8522124.pdb
Info: To read alchflag data from column: 5
Info: STRUCTURE SUMMARY:
Info: 2920 ATOMS
Info: 2919 BONDS
Info: 38 ANGLES
Info: 55 DIHEDRALS
Info: 0 IMPROPERS
Info: 0 CROSSTERMS
Info: 3006 EXCLUSIONS
Info: 2912 RIGID BONDS
Info: ALCH: 0 ATOMS TO DISAPPEAR IN FINAL STATE
Info: ALCH: 22 ATOMS TO APPEAR IN FINAL STATE
Info: 5848 DEGREES OF FREEDOM
Info: 974 HYDROGEN GROUPS
Info: 4 ATOMS IN LARGEST HYDROGEN GROUP
Info: 974 MIGRATION GROUPS
Info: 4 ATOMS IN LARGEST MIGRATION GROUP
Info: TOTAL MASS = 17513.6 amu
Info: TOTAL CHARGE = -9.99994e-05 e
Info: MASS DENSITY = 0.959126 g/cm^3
Info: ATOM DENSITY = 0.0962992 atoms/A^3
Info: ADDED 0 IMPLICIT EXCLUSIONS
Info: NONBONDED TABLE R-SQUARED SPACING: 0.0625
Info: NONBONDED TABLE SIZE: 705 POINTS
Info: REMOVING COM VELOCITY 0.0601936 -0.031401 -0.0324906
Info: Use 3D box decompostion in PME FFT.
Info: Updated CUDA force table with 4096 elements.
Info: Updated CUDA LJ table with 6 x 6 elements.
Info: Found 25 unique exclusion lists needing 80 bytes
TCL: Running for 1500000 steps
ETITLE: TS BOND ANGLE DIHED IMPRP ELECT VDW BOUNDARY MISC KINETIC TOTAL TEMP POTENTIAL TOTALAVG TEMPAVG PRESSURE GPRESSURE VOLUME PRESSAVG GPRESSAVG
ENERGY: 0 1.6620 10.8568 4.0758 0.0000 -10500.2143 1380.3889 0.0000 0.0000 1743.4574 -7359.7734 300.0505 -9103.2308 -7359.7734 300.0505 -281.2532 -181.5497 30322.1580 -281.2532 -181.5497
ENERGY: 300000 2.4031 13.5014 2.9237 0.0000 -10448.0225 1383.4964 0.0000 0.0000 1734.7033 -7310.9946 298.5439 -9045.6979 -7376.1042 296.3257 206.1920 307.6002 29793.4923 -255.9625 -162.9758
ENERGY: 600000 0.9613 9.8201 5.1734 0.0000 -10509.5552 1471.0998 0.0000 0.0000 1723.3829 -7299.1177 296.5957 -9022.5006 -7350.7672 299.5909 772.8239 785.0912 29916.3307 -161.7361 -97.5097
ENERGY: 900000 3.7726 12.2403 4.7119 0.0000 -10728.0628 1485.7775 0.0000 0.0000 1805.9818 -7415.5786 310.8110 -9221.5604 -7384.7718 298.7282 631.1122 682.2633 29299.5591 -126.4017 -61.8571
ENERGY: 1200000 5.7537 11.2313 2.4594 0.0000 -10593.4635 1472.3161 0.0000 0.0000 1737.4271 -7364.2759 299.0127 -9101.7030 -7384.7482 299.0332 627.5239 677.8375 29805.0360 -73.7243 -14.9782
ENERGY: 1500000 4.9380 11.6575 1.7742 0.0000 -10425.4831 1342.6996 0.0000 0.0000 1709.4043 -7355.0096 294.1899 -9064.4138 -7373.0222 299.2389 -639.1573 -594.2009 30455.7268 -146.5559 -80.9563
TCL: Running FEP window   2: Lambda1 0.95   Lambda2 0.8999999999999999 [dLambda -0.050000000000000044]
TCL: Setting parameter firsttimestep to 0
TCL: Setting parameter alchLambda to 0.95
Info: NONBONDED TABLE R-SQUARED SPACING: 0.0625
Info: NONBONDED TABLE SIZE: 705 POINTS
TCL: Setting parameter alchLambda2 to 0.8999999999999999
Info: NONBONDED TABLE R-SQUARED SPACING: 0.0625
Info: NONBONDED TABLE SIZE: 705 POINTS
TCL: Running for 1500000 steps
ETITLE: TS BOND ANGLE DIHED IMPRP ELECT VDW BOUNDARY MISC KINETIC TOTAL TEMP POTENTIAL TOTALAVG TEMPAVG PRESSURE GPRESSURE VOLUME PRESSAVG GPRESSAVG
ENERGY: 0 4.9380 11.6574 1.7742 0.0000 -10425.3742 1343.3049 0.0000 0.0000 1708.5713 -7355.1284 294.0466 -9063.6997 -7355.1284 294.0466 -679.7706 -602.0785 30455.7268 -679.7706 -602.0785
ENERGY: 300000 2.3635 11.5296 1.8765 0.0000 -10574.8493 1422.0475 0.0000 0.0000 1745.0353 -7391.9969 300.3221 -9137.0322 -7379.3869 298.7653 28.7767 54.3153 29941.2386 -157.8355 -92.2827
ENERGY: 600000 0.5823 8.9842 4.0224 0.0000 -10439.0494 1344.8085 0.0000 0.0000 1773.6131 -7307.0389 305.2403 -9080.6520 -7391.1695 297.4012 -542.0887 -394.3933 30249.2680 -122.7714 -37.3501
ENERGY: 900000 0.9676 10.4883 2.8378 0.0000 -10511.0254 1383.1923 0.0000 0.0000 1751.8203 -7361.7191 301.4898 -9113.5393 -7376.6589 298.7591 -2.4016 71.8279 29932.4276 -99.4156 -11.8337
ENERGY: 1200000 2.0650 15.9308 2.9635 0.0000 -10574.4618 1418.5227 0.0000 0.0000 1738.4777 -7396.5021 299.1935 -9134.9798 -7380.5159 299.2433 -167.6648 -160.1880 30414.4577 -178.0402 -104.2621
ENERGY: 1500000 2.1038 14.0873 4.2679 0.0000 -10569.8674 1393.1558 0.0000 0.0000 1764.7609 -7391.4916 303.7169 -9156.2526 -7382.8497 299.9608 -487.3359 -443.3330 30201.7578 -135.5243 -68.0216
TCL: Running FEP window   3: Lambda1 0.8999999999999999 Lambda2 0.8499999999999999 [dLambda -0.050000000000000044]
TCL: Setting parameter firsttimestep to 0
TCL: Setting parameter alchLambda to 0.8999999999999999
Info: NONBONDED TABLE R-SQUARED SPACING: 0.0625
Info: NONBONDED TABLE SIZE: 705 POINTS
TCL: Setting parameter alchLambda2 to 0.8499999999999999
Info: NONBONDED TABLE R-SQUARED SPACING: 0.0625
Info: NONBONDED TABLE SIZE: 705 POINTS
TCL: Running for 1500000 steps
ETITLE: TS BOND ANGLE DIHED IMPRP ELECT VDW BOUNDARY MISC KINETIC TOTAL TEMP POTENTIAL TOTALAVG TEMPAVG PRESSURE GPRESSURE VOLUME PRESSAVG GPRESSAVG
ENERGY: 0 2.1038 14.0873 4.2679 0.0000 -10569.6755 1393.8558 0.0000 0.0000 1763.8508 -7391.5098 303.5602 -9155.3606 -7391.5098 303.5602 -543.6984 -450.0149 30201.7578 -543.6984 -450.0149
ENERGY: 300000 1.1868 10.9540 3.8093 0.0000 -10606.0196 1455.6676 0.0000 0.0000 1753.0997 -7381.3023 301.7099 -9134.4019 -7438.1677 301.4864 145.2165 213.4240 30174.8733 -187.1407 -104.2910
ENERGY: 600000 2.0062 5.8184 1.6128 0.0000 -10616.8942 1514.9341 0.0000 0.0000 1745.5307 -7346.9921 300.4073 -9092.5227 -7401.8100 302.1951 913.3818 926.1412 29948.3903 -106.4470 -54.0638
ENERGY: 900000 1.6169 11.0080 2.4852 0.0000 -10448.2681 1352.0952 0.0000 0.0000 1781.2443 -7299.8185 306.5537 -9081.0627 -7386.6939 302.3748 -582.9578 -425.3034 30490.4369 -123.4416 -59.0552
ENERGY: 1200000 1.0737 14.6112 1.7360 0.0000 -10476.3321 1370.3999 0.0000 0.0000 1788.3518 -7300.1594 307.7769 -9088.5112 -7391.5239 301.3286 -420.1956 -379.1874 30520.5401 -141.0048 -81.1272
ENERGY: 1500000 3.8257 7.0901 2.4117 0.0000 -10462.6873 1370.3277 0.0000 0.0000 1747.6695 -7331.3626 300.7754 -9079.0321 -7383.5147 301.4880 -262.3121 -263.0893 30241.0114 -115.6803 -65.6932
TCL: Running FEP window   4: Lambda1 0.8499999999999999 Lambda2 0.7999999999999998 [dLambda -0.050000000000000044]
TCL: Setting parameter firsttimestep to 0
TCL: Setting parameter alchLambda to 0.8499999999999999
Info: NONBONDED TABLE R-SQUARED SPACING: 0.0625
Info: NONBONDED TABLE SIZE: 705 POINTS
TCL: Setting parameter alchLambda2 to 0.7999999999999998
Info: NONBONDED TABLE R-SQUARED SPACING: 0.0625
Info: NONBONDED TABLE SIZE: 705 POINTS
TCL: Running for 1500000 steps
ETITLE: TS BOND ANGLE DIHED IMPRP ELECT VDW BOUNDARY MISC KINETIC TOTAL TEMP POTENTIAL TOTALAVG TEMPAVG PRESSURE GPRESSURE VOLUME PRESSAVG GPRESSAVG
ENERGY: 0 3.8257 7.0901 2.4117 0.0000 -10462.4641 1369.9997 0.0000 0.0000 1746.7913 -7332.3456 300.6243 -9079.1370 -7332.3456 300.6243 -357.0536 -282.8161 30241.0114 -357.0536 -282.8161
ENERGY: 300000 1.3670 10.6275 3.2113 0.0000 -10481.6352 1310.2321 0.0000 0.0000 1715.7116 -7440.4857 295.2754 -9156.1973 -7377.4654 299.5605 -1159.7315 -1084.4692 30377.9126 -540.1095 -468.5014
ENERGY: 600000 3.1987 12.9919 4.6937 0.0000 -10647.4096 1469.9944 0.0000 0.0000 1743.5087 -7413.0222 300.0593 -9156.5309 -7379.6320 300.4688 210.6603 246.5783 29967.5647 -271.6229 -202.7456
ENERGY: 900000 1.7147 10.1369 3.7699 0.0000 -10482.0719 1376.6183 0.0000 0.0000 1771.6212 -7318.2109 304.8975 -9089.8321 -7374.5693 301.1841 -448.0969 -319.4539 30415.5459 -313.7147 -241.5167
ENERGY: 1200000 2.5864 9.1880 3.1322 0.0000 -10685.1520 1480.0561 0.0000 0.0000 1784.8392 -7405.3501 307.1724 -9190.1893 -7374.3762 301.7238 147.0595 168.7593 30310.2132 -199.0019 -136.7719
ENERGY: 1500000 0.9083 10.3776 2.5014 0.0000 -10605.2640 1409.4145 0.0000 0.0000 1705.9679 -7476.0942 293.5985 -9182.0621 -7392.0603 300.9555 -95.8740 -50.6082 29700.3038 -112.9229 -52.0311
TCL: Running FEP window   5: Lambda1 0.7999999999999998 Lambda2 0.7499999999999998 [dLambda -0.050000000000000044]
TCL: Setting parameter firsttimestep to 0
TCL: Setting parameter alchLambda to 0.7999999999999998
Info: NONBONDED TABLE R-SQUARED SPACING: 0.0625
Info: NONBONDED TABLE SIZE: 705 POINTS
TCL: Setting parameter alchLambda2 to 0.7499999999999998
Info: NONBONDED TABLE R-SQUARED SPACING: 0.0625
Info: NONBONDED TABLE SIZE: 705 POINTS
TCL: Running for 1500000 steps
ETITLE: TS BOND ANGLE DIHED IMPRP ELECT VDW BOUNDARY MISC KINETIC TOTAL TEMP POTENTIAL TOTALAVG TEMPAVG PRESSURE GPRESSURE VOLUME PRESSAVG GPRESSAVG
ENERGY: 0 0.9083 10.3776 2.5014 0.0000 -10605.0770 1409.7580 0.0000 0.0000 1705.0950 -7476.4366 293.4483 -9181.5316 -7476.4366 293.4483 -130.2342 -61.3872 29700.3038 -130.2342 -61.3872
ENERGY: 300000 1.0919 10.0259 3.7893 0.0000 -10568.7541 1380.7548 0.0000 0.0000 1713.7998 -7459.2925 294.9464 -9173.0922 -7378.0388 300.1591 -692.1155 -664.8858 30482.4207 -444.7100 -379.5573
ENERGY: 600000 1.7066 7.8390 3.1543 0.0000 -10358.3798 1296.4862 0.0000 0.0000 1797.8747 -7251.3190 309.4158 -9049.1936 -7362.9465 300.2165 -502.7802 -488.7790 29815.7528 -375.7541 -315.7387
ENERGY: 900000 0.7406 7.7517 2.7106 0.0000 -10448.2675 1344.1587 0.0000 0.0000 1796.6582 -7296.2476 309.2064 -9092.9058 -7353.3878 302.1350 -264.6868 -193.4134 29998.9607 -285.3208 -228.7192
ENERGY: 1200000 3.8087 9.8345 4.7127 0.0000 -10438.6267 1324.3596 0.0000 0.0000 1723.4754 -7372.4357 296.6116 -9095.9111 -7361.6542 300.7764 -500.0905 -471.5352 29996.2055 -319.4241 -263.9567
ENERGY: 1500000 2.0055 11.4338 5.3003 0.0000 -10547.3246 1423.2594 0.0000 0.0000 1736.6231 -7368.7025 298.8743 -9105.3256 -7365.7716 300.2065 -25.0419 31.8974 30536.4308 -304.9214 -243.9374
TCL: Running FEP window   6: Lambda1 0.7499999999999998 Lambda2 0.6999999999999997 [dLambda -0.050000000000000044]
TCL: Setting parameter firsttimestep to 0
TCL: Setting parameter alchLambda to 0.7499999999999998
Info: NONBONDED TABLE R-SQUARED SPACING: 0.0625
Info: NONBONDED TABLE SIZE: 705 POINTS
TCL: Setting parameter alchLambda2 to 0.6999999999999997
Info: NONBONDED TABLE R-SQUARED SPACING: 0.0625
Info: NONBONDED TABLE SIZE: 705 POINTS
TCL: Running for 1500000 steps
ETITLE: TS BOND ANGLE DIHED IMPRP ELECT VDW BOUNDARY MISC KINETIC TOTAL TEMP POTENTIAL TOTALAVG TEMPAVG PRESSURE GPRESSURE VOLUME PRESSAVG GPRESSAVG
ENERGY: 0 2.0055 11.4338 5.3003 0.0000 -10547.0854 1422.7976 0.0000 0.0000 1735.7901 -7369.7581 298.7310 -9105.5482 -7369.7581 298.7310 -64.2156 16.1748 30536.4308 -64.2156 16.1748
ENERGY: 300000 2.5268 11.6701 2.9211 0.0000 -10564.9921 1398.6575 0.0000 0.0000 1735.4074 -7413.8092 298.6651 -9149.2166 -7432.1384 297.2750 -228.2935 -75.5022 29859.7079 -489.8792 -401.0044
ENERGY: 600000 2.3769 11.5201 3.1226 0.0000 -10610.3464 1449.7345 0.0000 0.0000 1819.3719 -7324.2205 313.1155 -9143.5924 -7389.2806 301.9088 133.9871 182.8707 29915.2951 -334.8181 -244.8287
ENERGY: 900000 1.4059 10.0202 1.8307 0.0000 -10465.2506 1397.8911 0.0000 0.0000 1752.9508 -7301.1519 301.6843 -9054.1027 -7376.0576 301.2478 270.9486 292.2014 29821.2677 -257.5552 -185.6481
ENERGY: 1200000 3.0399 10.3728 3.5417 0.0000 -10558.6198 1405.1008 0.0000 0.0000 1768.4819 -7368.0827 304.3572 -9136.5646 -7375.7328 301.6348 2.7704 43.0002 29610.6128 -222.2729 -156.5877
ENERGY: 1500000 0.8959 11.2829 2.4590 0.0000 -10633.3153 1387.2275 0.0000 0.0000 1802.8276 -7428.6225 310.2682 -9231.4500 -7381.5360 301.5346 -628.9618 -601.3584 30389.8639 -256.4416 -195.6167
TCL: Running FEP window   7: Lambda1 0.6999999999999997 Lambda2 0.6499999999999997 [dLambda -0.050000000000000044]
TCL: Setting parameter firsttimestep to 0
TCL: Setting parameter alchLambda to 0.6999999999999997
Info: NONBONDED TABLE R-SQUARED SPACING: 0.0625
Info: NONBONDED TABLE SIZE: 705 POINTS
TCL: Setting parameter alchLambda2 to 0.6499999999999997
Info: NONBONDED TABLE R-SQUARED SPACING: 0.0625
Info: NONBONDED TABLE SIZE: 705 POINTS
TCL: Running for 1500000 steps
ETITLE: TS BOND ANGLE DIHED IMPRP ELECT VDW BOUNDARY MISC KINETIC TOTAL TEMP POTENTIAL TOTALAVG TEMPAVG PRESSURE GPRESSURE VOLUME PRESSAVG GPRESSAVG
ENERGY: 0 0.8959 11.2829 2.4590 0.0000 -10633.0129 1387.4042 0.0000 0.0000 1801.9388 -7429.0321 310.1152 -9230.9709 -7429.0321 310.1152 -689.6117 -609.1432 30389.8639 -689.6117 -609.1432
ENERGY: 300000 1.6986 17.2875 3.1225 0.0000 -10549.7490 1426.5655 0.0000 0.0000 1752.8016 -7348.2734 301.6586 -9101.0750 -7355.9182 304.4774 -103.3185 -47.6828 30362.4719 -202.1997 -130.1135
ENERGY: 600000 2.3712 14.3933 1.9047 0.0000 -10799.7647 1627.2142 0.0000 0.0000 1751.7202 -7402.1611 301.4725 -9153.8813 -7372.8426 302.0535 1753.0102 1803.4757 29775.8349 36.5023 123.1602
ENERGY: 900000 0.6767 6.0951 3.5312 0.0000 -10540.1355 1431.3869 0.0000 0.0000 1761.1438 -7337.3018 303.0944 -9098.4456 -7357.5028 302.3153 62.5370 186.6904 30480.6429 63.8846 149.7702
ENERGY: 1200000 1.7243 12.8426 2.7046 0.0000 -10665.0561 1467.4742 0.0000 0.0000 1739.4847 -7440.8256 299.3668 -9180.3103 -7360.6513 301.8410 276.6001 275.0558 30077.7512 -51.9920 24.2432
ENERGY: 1500000 4.3444 5.8104 2.6931 0.0000 -10591.6302 1410.8408 0.0000 0.0000 1798.7905 -7369.1510 309.5734 -9167.9415 -7358.5170 302.0796 -101.9018 -44.9178 30073.2393 -84.9739 -11.3711
TCL: Running FEP window   8: Lambda1 0.6499999999999997 Lambda2 0.5999999999999996 [dLambda -0.050000000000000044]
TCL: Setting parameter firsttimestep to 0
TCL: Setting parameter alchLambda to 0.6499999999999997
Info: NONBONDED TABLE R-SQUARED SPACING: 0.0625
Info: NONBONDED TABLE SIZE: 705 POINTS
TCL: Setting parameter alchLambda2 to 0.5999999999999996
Info: NONBONDED TABLE R-SQUARED SPACING: 0.0625
Info: NONBONDED TABLE SIZE: 705 POINTS
TCL: Running for 1500000 steps
ETITLE: TS BOND ANGLE DIHED IMPRP ELECT VDW BOUNDARY MISC KINETIC TOTAL TEMP POTENTIAL TOTALAVG TEMPAVG PRESSURE GPRESSURE VOLUME PRESSAVG GPRESSAVG
ENERGY: 0 4.3444 5.8104 2.6931 0.0000 -10591.6050 1411.0874 0.0000 0.0000 1797.8959 -7369.7739 309.4194 -9167.6698 -7369.7739 309.4194 -141.1876 -50.2243 30073.2393 -141.1876 -50.2243
ENERGY: 300000 0.4921 11.5683 1.9037 0.0000 -10531.4223 1394.6246 0.0000 0.0000 1747.4564 -7375.3772 300.7387 -9122.8337 -7376.1741 303.3877 -102.5696 -25.9848 29909.1133 -418.2996 -340.5349
ENERGY: 600000 3.5494 9.4114 3.7741 0.0000 -10534.7082 1426.7608 0.0000 0.0000 1698.1657 -7393.0468 292.2558 -9091.2125 -7387.6499 301.4555 138.3692 256.3713 29881.7415 -307.5250 -230.7224
ENERGY: 900000 4.0573 8.7229 3.2263 0.0000 -10585.9955 1415.1080 0.0000 0.0000 1742.0794 -7412.8015 299.8134 -9154.8810 -7382.8575 300.8387 -428.1036 -339.0475 30421.8704 -327.9457 -245.8626
ENERGY: 1200000 2.0189 6.3612 4.2164 0.0000 -10458.7275 1381.0588 0.0000 0.0000 1743.8037 -7321.2685 300.1101 -9065.0722 -7383.8932 300.3065 -324.2440 -289.3855 30464.4594 -335.9784 -271.8046
ENERGY: 1500000 0.7687 6.2519 2.9321 0.0000 -10509.8010 1387.8713 0.0000 0.0000 1723.9629 -7388.0141 296.6955 -9111.9769 -7381.6357 300.4602 -316.3187 -272.5737 30159.0180 -280.1157 -214.0076
TCL: Running FEP window   9: Lambda1 0.5999999999999996 Lambda2 0.5499999999999996 [dLambda -0.050000000000000044]
TCL: Setting parameter firsttimestep to 0
TCL: Setting parameter alchLambda to 0.5999999999999996
Info: NONBONDED TABLE R-SQUARED SPACING: 0.0625
Info: NONBONDED TABLE SIZE: 705 POINTS
TCL: Setting parameter alchLambda2 to 0.5499999999999996
Info: NONBONDED TABLE R-SQUARED SPACING: 0.0625
Info: NONBONDED TABLE SIZE: 705 POINTS
TCL: Running for 1500000 steps
ETITLE: TS BOND ANGLE DIHED IMPRP ELECT VDW BOUNDARY MISC KINETIC TOTAL TEMP POTENTIAL TOTALAVG TEMPAVG PRESSURE GPRESSURE VOLUME PRESSAVG GPRESSAVG
ENERGY: 0 0.7687 6.2519 2.9321 0.0000 -10509.9451 1388.6033 0.0000 0.0000 1723.0932 -7388.2958 296.5458 -9111.3891 -7388.2958 296.5458 -343.5893 -274.4549 30159.0180 -343.5893 -274.4549
ENERGY: 300000 2.3473 13.3879 2.1584 0.0000 -10695.4265 1431.8571 0.0000 0.0000 1771.7591 -7473.9166 304.9213 -9245.6758 -7403.9670 298.1217 -384.0124 -340.6205 30212.4747 -374.5904 -288.0818
ENERGY: 600000 3.5122 8.6486 2.0266 0.0000 -10470.1181 1392.1772 0.0000 0.0000 1773.1262 -7290.6273 305.1565 -9063.7535 -7384.8225 298.4400 -162.7218 -110.3417 29900.5863 -257.0250 -182.1366
ENERGY: 900000 3.0318 11.1179 1.8271 0.0000 -10400.6077 1311.7358 0.0000 0.0000 1665.6834 -7407.2117 286.6655 -9072.8951 -7367.6742 298.4151 -755.0269 -694.3758 29866.0429 -397.7299 -321.6200
ENERGY: 1200000 1.3818 7.7712 5.2440 0.0000 -10476.4334 1333.5581 0.0000 0.0000 1748.1900 -7380.2884 300.8650 -9128.4784 -7359.0418 299.2753 -683.1628 -605.0986 30136.6722 -467.5111 -392.3300
ENERGY: 1500000 2.4300 7.1838 3.0821 0.0000 -10552.2028 1397.0999 0.0000 0.0000 1750.0931 -7392.3138 301.1925 -9142.4069 -7374.0694 299.2159 -307.3885 -231.8779 30049.1718 -350.4694 -278.7308
TCL: Running FEP window  10: Lambda1 0.5499999999999996 Lambda2 0.4999999999999996 [dLambda -0.04999999999999999]
TCL: Setting parameter firsttimestep to 0
TCL: Setting parameter alchLambda to 0.5499999999999996
Info: NONBONDED TABLE R-SQUARED SPACING: 0.0625
Info: NONBONDED TABLE SIZE: 705 POINTS
TCL: Setting parameter alchLambda2 to 0.4999999999999996
Info: NONBONDED TABLE R-SQUARED SPACING: 0.0625
Info: NONBONDED TABLE SIZE: 705 POINTS
TCL: Running for 1500000 steps
ETITLE: TS BOND ANGLE DIHED IMPRP ELECT VDW BOUNDARY MISC KINETIC TOTAL TEMP POTENTIAL TOTALAVG TEMPAVG PRESSURE GPRESSURE VOLUME PRESSAVG GPRESSAVG
ENERGY: 0 2.4300 7.1838 3.0821 0.0000 -10552.0761 1395.9678 0.0000 0.0000 1749.2451 -7394.1672 301.0466 -9143.4124 -7394.1672 301.0466 -346.6030 -250.8881 30049.1718 -346.6030 -250.8881
ENERGY: 300000 4.4795 11.3149 3.2313 0.0000 -10638.2436 1445.5768 0.0000 0.0000 1762.9510 -7410.6902 303.4054 -9173.6411 -7406.2158 303.2798 -79.3184 25.8078 30122.3598 -312.8697 -223.8377
ENERGY: 600000 1.1820 12.4515 2.2879 0.0000 -10388.2187 1341.6076 0.0000 0.0000 1775.7151 -7254.9747 305.6021 -9030.6898 -7385.0751 302.4439 -274.8457 -223.8053 30304.8241 -253.9834 -170.7434
ENERGY: 900000 2.3798 9.5092 2.2272 0.0000 -10420.0254 1362.7836 0.0000 0.0000 1723.5651 -7319.5605 296.6270 -9043.1256 -7373.4648 302.1783 -544.7554 -476.2655 30479.8875 -175.0297 -95.5133
ENERGY: 1200000 0.2983 10.6975 2.7457 0.0000 -10496.7185 1423.8412 0.0000 0.0000 1813.8584 -7245.2773 312.1666 -9059.1358 -7361.2574 302.8332 463.1222 459.8668 29833.9884 -99.2059 -29.6359
ENERGY: 1500000 4.9103 8.6048 3.5189 0.0000 -10540.8669 1429.1133 0.0000 0.0000 1767.2517 -7327.4680 304.1455 -9094.7197 -7358.1672 302.6349 -140.1243 -134.1710 30254.8075 23.3859 89.0794
TCL: Running FEP window  11: Lambda1 0.4999999999999996 Lambda2 0.4499999999999996 [dLambda -0.04999999999999999]
TCL: Setting parameter firsttimestep to 0
TCL: Setting parameter alchLambda to 0.4999999999999996
Info: NONBONDED TABLE R-SQUARED SPACING: 0.0625
Info: NONBONDED TABLE SIZE: 705 POINTS
TCL: Setting parameter alchLambda2 to 0.4499999999999996
Info: NONBONDED TABLE R-SQUARED SPACING: 0.0625
Info: NONBONDED TABLE SIZE: 705 POINTS
TCL: Running for 1500000 steps
ETITLE: TS BOND ANGLE DIHED IMPRP ELECT VDW BOUNDARY MISC KINETIC TOTAL TEMP POTENTIAL TOTALAVG TEMPAVG PRESSURE GPRESSURE VOLUME PRESSAVG GPRESSAVG
ENERGY: 0 4.9103 8.6048 3.5189 0.0000 -10540.8009 1429.4587 0.0000 0.0000 1766.3699 -7327.9384 303.9938 -9094.3083 -7327.9384 303.9938 -222.5638 -141.2428 30254.8075 -222.5638 -141.2428
ENERGY: 300000 2.7577 9.6695 2.7110 0.0000 -10620.4180 1430.9064 0.0000 0.0000 1776.4129 -7397.9606 305.7222 -9174.3734 -7345.0498 301.9026 -70.4027 40.8433 30074.5952 -210.9955 -137.8969
ENERGY: 600000 3.3806 13.3094 1.6283 0.0000 -10583.9111 1416.5189 0.0000 0.0000 1717.6554 -7431.4185 295.6099 -9149.0739 -7372.1687 298.6535 -19.8437 30.3892 29819.4675 -157.3495 -91.1875
ENERGY: 900000 4.4646 6.8617 3.7440 0.0000 -10493.6091 1427.0220 0.0000 0.0000 1723.3388 -7328.1780 296.5881 -9051.5168 -7360.6825 300.4879 133.4171 196.1055 29855.7965 -50.6523 6.1189
ENERGY: 1200000 1.8264 10.9283 1.5796 0.0000 -10416.7846 1323.0517 0.0000 0.0000 1720.6853 -7358.7133 296.1314 -9079.3985 -7366.4402 299.5185 -611.8845 -584.3696 29928.9827 -127.3630 -74.1384
ENERGY: 1500000 2.9943 12.5730 2.2805 0.0000 -10560.6645 1418.3485 0.0000 0.0000 1723.9149 -7400.5532 296.6872 -9124.4681 -7365.8916 299.8120 -109.8770 -43.5104 30018.6087 -165.9272 -110.2243
TCL: Running FEP window  12: Lambda1 0.4499999999999996 Lambda2 0.39999999999999963 [dLambda -0.04999999999999999]
TCL: Setting parameter firsttimestep to 0
TCL: Setting parameter alchLambda to 0.4499999999999996
Info: NONBONDED TABLE R-SQUARED SPACING: 0.0625
Info: NONBONDED TABLE SIZE: 705 POINTS
TCL: Setting parameter alchLambda2 to 0.39999999999999963
Info: NONBONDED TABLE R-SQUARED SPACING: 0.0625
Info: NONBONDED TABLE SIZE: 705 POINTS
TCL: Running for 1500000 steps
ETITLE: TS BOND ANGLE DIHED IMPRP ELECT VDW BOUNDARY MISC KINETIC TOTAL TEMP POTENTIAL TOTALAVG TEMPAVG PRESSURE GPRESSURE VOLUME PRESSAVG GPRESSAVG
ENERGY: 0 2.9943 12.5730 2.2805 0.0000 -10560.6650 1418.5721 0.0000 0.0000 1723.0681 -7401.1770 296.5415 -9124.2451 -7401.1770 296.5415 -144.7671 -50.0620 30018.6087 -144.7671 -50.0620
ENERGY: 300000 2.7122 12.5183 2.5831 0.0000 -10430.7462 1357.1814 0.0000 0.0000 1713.3158 -7342.4353 294.8631 -9055.7511 -7423.5332 294.7236 -653.3039 -605.8610 30411.9189 -245.2959 -170.0799
ENERGY: 600000 6.4053 9.1798 2.8273 0.0000 -10606.7117 1453.2972 0.0000 0.0000 1711.6135 -7423.3888 294.5701 -9135.0023 -7420.0650 296.5974 -79.6338 -91.4492 30389.9075 -276.0485 -221.1450
ENERGY: 900000 1.3640 9.4382 2.2045 0.0000 -10566.0730 1408.8127 0.0000 0.0000 1724.6682 -7419.5853 296.8169 -9144.2536 -7412.0256 297.8805 -327.1654 -269.9177 30111.9078 -215.4167 -158.2377
ENERGY: 1200000 4.7054 8.4752 2.7686 0.0000 -10569.7968 1437.5797 0.0000 0.0000 1693.9155 -7422.3524 291.5243 -9116.2679 -7393.7754 297.8360 403.4600 416.4818 29645.4455 -138.0455 -83.4834
ENERGY: 1500000 1.9170 9.3681 1.9877 0.0000 -10400.1139 1321.8738 0.0000 0.0000 1732.0056 -7332.9616 298.0796 -9064.9672 -7387.5238 298.5362 -778.3302 -668.5609 30232.7263 -183.8398 -121.3966
TCL: Running FEP window  13: Lambda1 0.39999999999999963 Lambda2 0.34999999999999964 [dLambda -0.04999999999999999]
TCL: Setting parameter firsttimestep to 0
TCL: Setting parameter alchLambda to 0.39999999999999963
Info: NONBONDED TABLE R-SQUARED SPACING: 0.0625
Info: NONBONDED TABLE SIZE: 705 POINTS
TCL: Setting parameter alchLambda2 to 0.34999999999999964
Info: NONBONDED TABLE R-SQUARED SPACING: 0.0625
Info: NONBONDED TABLE SIZE: 705 POINTS
TCL: Running for 1500000 steps
ETITLE: TS BOND ANGLE DIHED IMPRP ELECT VDW BOUNDARY MISC KINETIC TOTAL TEMP POTENTIAL TOTALAVG TEMPAVG PRESSURE GPRESSURE VOLUME PRESSAVG GPRESSAVG
ENERGY: 0 1.9170 9.3681 1.9877 0.0000 -10400.1141 1321.7210 0.0000 0.0000 1731.0917 -7334.0286 297.9224 -9065.1203 -7334.0286 297.9224 -757.8252 -675.5227 30232.7263 -757.8252 -675.5227
ENERGY: 300000 1.2058 12.2159 3.1980 0.0000 -10539.7964 1409.0906 0.0000 0.0000 1785.3586 -7328.7275 307.2617 -9114.0862 -7345.2796 300.3382 -267.2936 -195.6794 30291.6292 35.8130 115.1540
ENERGY: 600000 4.4072 10.9154 4.4358 0.0000 -10514.3488 1446.4594 0.0000 0.0000 1729.9302 -7318.2008 297.7225 -9048.1310 -7342.1516 299.6533 276.7740 288.8995 30034.8564 158.6055 225.5524
ENERGY: 900000 1.1312 12.8212 2.1721 0.0000 -10628.6714 1438.0157 0.0000 0.0000 1718.8143 -7455.7168 295.8094 -9174.5311 -7361.0749 299.0587 77.6234 168.2764 29796.2399 87.3268 153.0221
ENERGY: 1200000 0.6319 10.6335 2.7964 0.0000 -10533.1081 1382.9089 0.0000 0.0000 1762.9467 -7373.1907 303.4046 -9136.1374 -7367.7849 299.7875 -25.1203 15.3066 29438.3323 164.6369 228.4018
ENERGY: 1500000 1.2466 13.4894 2.2731 0.0000 -10573.1405 1388.0954 0.0000 0.0000 1754.6933 -7413.3427 301.9842 -9168.0360 -7371.3531 300.1825 -390.9698 -335.9888 29920.9111 55.6432 127.7554
TCL: Running FEP window  14: Lambda1 0.34999999999999964 Lambda2 0.29999999999999966 [dLambda -0.04999999999999999]
TCL: Setting parameter firsttimestep to 0
TCL: Setting parameter alchLambda to 0.34999999999999964
Info: NONBONDED TABLE R-SQUARED SPACING: 0.0625
Info: NONBONDED TABLE SIZE: 705 POINTS
TCL: Setting parameter alchLambda2 to 0.29999999999999966
Info: NONBONDED TABLE R-SQUARED SPACING: 0.0625
Info: NONBONDED TABLE SIZE: 705 POINTS
TCL: Running for 1500000 steps
ETITLE: TS BOND ANGLE DIHED IMPRP ELECT VDW BOUNDARY MISC KINETIC TOTAL TEMP POTENTIAL TOTALAVG TEMPAVG PRESSURE GPRESSURE VOLUME PRESSAVG GPRESSAVG
ENERGY: 0 1.2466 13.4894 2.2731 0.0000 -10573.1413 1387.7534 0.0000 0.0000 1753.8123 -7414.5665 301.8326 -9168.3788 -7414.5665 301.8326 -412.1902 -345.7669 29920.9111 -412.1902 -345.7669
ENERGY: 300000 2.8509 10.1162 1.7497 0.0000 -10531.6885 1354.2583 0.0000 0.0000 1728.4971 -7434.2164 297.4758 -9162.7134 -7396.4123 299.3542 -482.2985 -455.2690 29908.1865 -353.6867 -291.7622
ENERGY: 600000 1.8975 12.4841 2.9563 0.0000 -10522.8640 1363.9379 0.0000 0.0000 1753.0485 -7388.5396 301.7011 -9141.5880 -7397.6622 299.8710 -345.8332 -252.0650 29808.3212 -355.8581 -288.2432
ENERGY: 900000 1.2982 10.4460 2.5045 0.0000 -10596.0604 1409.4309 0.0000 0.0000 1736.9902 -7435.3906 298.9375 -9172.3808 -7400.8916 299.3643 -59.7937 -62.0023 29812.9926 -276.3374 -223.4095
ENERGY: 1200000 1.9084 13.0137 1.8760 0.0000 -10555.0711 1459.9860 0.0000 0.0000 1741.7137 -7336.5733 299.7504 -9078.2870 -7406.3020 298.9903 378.6116 426.9338 30024.1337 -263.5465 -206.5450
ENERGY: 1500000 2.4681 10.0979 2.7813 0.0000 -10470.0418 1392.8959 0.0000 0.0000 1734.4847 -7327.3138 298.5063 -9061.7985 -7409.0692 299.4109 -452.3354 -334.7384 30350.2525 -337.3182 -275.5217
TCL: Running FEP window  15: Lambda1 0.29999999999999966 Lambda2 0.24999999999999967 [dLambda -0.04999999999999999]
TCL: Setting parameter firsttimestep to 0
TCL: Setting parameter alchLambda to 0.29999999999999966
Info: NONBONDED TABLE R-SQUARED SPACING: 0.0625
Info: NONBONDED TABLE SIZE: 705 POINTS
TCL: Setting parameter alchLambda2 to 0.24999999999999967
Info: NONBONDED TABLE R-SQUARED SPACING: 0.0625
Info: NONBONDED TABLE SIZE: 705 POINTS
TCL: Running for 1500000 steps
ETITLE: TS BOND ANGLE DIHED IMPRP ELECT VDW BOUNDARY MISC KINETIC TOTAL TEMP POTENTIAL TOTALAVG TEMPAVG PRESSURE GPRESSURE VOLUME PRESSAVG GPRESSAVG
ENERGY: 0 2.4681 10.0979 2.7813 0.0000 -10470.0424 1392.8978 0.0000 0.0000 1733.6337 -7328.1636 298.3598 -9061.7972 -7328.1636 298.3598 -419.7949 -337.4332 30350.2525 -419.7949 -337.4332
ENERGY: 300000 1.7765 7.5744 2.8268 0.0000 -10547.0536 1394.2060 0.0000 0.0000 1691.7283 -7448.9416 291.1479 -9140.6699 -7380.8848 295.5752 -302.2066 -212.8799 30046.4768 -173.8969 -104.1603
ENERGY: 600000 0.7929 8.8907 2.3154 0.0000 -10403.1976 1338.3937 0.0000 0.0000 1798.2208 -7254.5841 309.4753 -9052.8049 -7353.6890 298.7503 -517.1956 -542.0538 30104.4205 -145.2284 -98.0873
ENERGY: 900000 3.5434 13.7125 2.0829 0.0000 -10460.3840 1349.4008 0.0000 0.0000 1711.7216 -7379.9228 294.5887 -9091.6443 -7366.0593 298.3414 -785.9815 -671.9266 30216.0604 -119.3463 -67.4685
ENERGY: 1200000 2.7937 9.6716 4.1238 0.0000 -10571.0804 1461.3024 0.0000 0.0000 1735.7108 -7357.4781 298.7173 -9093.1888 -7368.5017 298.7692 333.8412 347.8608 29905.2168 -90.8464 -34.4382
ENERGY: 1500000 1.4805 10.9785 3.2124 0.0000 -10561.2468 1442.8886 0.0000 0.0000 1725.4963 -7377.1906 296.9594 -9102.6869 -7370.4328 299.3941 -0.2023 49.2243 30300.6049 -213.1174 -154.3676
TCL: Running FEP window  16: Lambda1 0.24999999999999967 Lambda2 0.19999999999999968 [dLambda -0.04999999999999999]
TCL: Setting parameter firsttimestep to 0
TCL: Setting parameter alchLambda to 0.24999999999999967
Info: NONBONDED TABLE R-SQUARED SPACING: 0.0625
Info: NONBONDED TABLE SIZE: 705 POINTS
TCL: Setting parameter alchLambda2 to 0.19999999999999968
Info: NONBONDED TABLE R-SQUARED SPACING: 0.0625
Info: NONBONDED TABLE SIZE: 705 POINTS
TCL: Running for 1500000 steps
ETITLE: TS BOND ANGLE DIHED IMPRP ELECT VDW BOUNDARY MISC KINETIC TOTAL TEMP POTENTIAL TOTALAVG TEMPAVG PRESSURE GPRESSURE VOLUME PRESSAVG GPRESSAVG
ENERGY: 0 1.4805 10.9785 3.2124 0.0000 -10561.2482 1443.1034 0.0000 0.0000 1724.6410 -7377.8325 296.8122 -9102.4736 -7377.8325 296.8122 -37.6228 44.4213 30300.6049 -37.6228 44.4213
ENERGY: 300000 2.2773 8.8284 2.6736 0.0000 -10613.0819 1446.6694 0.0000 0.0000 1731.3888 -7421.2445 297.9735 -9152.6333 -7394.8287 297.1055 77.5173 127.0276 29611.6030 115.1160 196.0169
ENERGY: 600000 1.7946 12.3859 2.9588 0.0000 -10579.5402 1464.4226 0.0000 0.0000 1771.2330 -7326.7452 304.8307 -9097.9783 -7378.1536 298.6510 213.8294 295.0977 29900.5718 193.4865 275.3891
ENERGY: 900000 1.8641 8.6429 2.9959 0.0000 -10687.1508 1534.6064 0.0000 0.0000 1760.6042 -7378.4374 303.0015 -9139.0416 -7369.3571 300.6646 967.2100 1015.1655 29943.2054 312.3490 373.1280
ENERGY: 1200000 1.0818 11.8101 1.9907 0.0000 -10570.2298 1459.2042 0.0000 0.0000 1739.4601 -7356.6830 299.3626 -9096.1431 -7376.4276 300.5722 344.1177 412.1388 29785.2547 263.9647 322.3932
ENERGY: 1500000 3.2941 6.8260 4.3258 0.0000 -10583.2649 1457.6521 0.0000 0.0000 1718.0267 -7393.1403 295.6739 -9111.1670 -7385.0734 299.3415 331.6848 373.1893 29518.8337 218.7441 270.8432
TCL: Running FEP window  17: Lambda1 0.19999999999999968 Lambda2 0.1499999999999997 [dLambda -0.04999999999999999]
TCL: Setting parameter firsttimestep to 0
TCL: Setting parameter alchLambda to 0.19999999999999968
Info: NONBONDED TABLE R-SQUARED SPACING: 0.0625
Info: NONBONDED TABLE SIZE: 705 POINTS
TCL: Setting parameter alchLambda2 to 0.1499999999999997
Info: NONBONDED TABLE R-SQUARED SPACING: 0.0625
Info: NONBONDED TABLE SIZE: 705 POINTS
TCL: Running for 1500000 steps
ETITLE: TS BOND ANGLE DIHED IMPRP ELECT VDW BOUNDARY MISC KINETIC TOTAL TEMP POTENTIAL TOTALAVG TEMPAVG PRESSURE GPRESSURE VOLUME PRESSAVG GPRESSAVG
ENERGY: 0 3.2941 6.8260 4.3258 0.0000 -10583.2653 1457.8580 0.0000 0.0000 1717.1751 -7393.7864 295.5273 -9110.9615 -7393.7864 295.5273 280.0890 368.0167 29518.8337 280.0890 368.0167
ENERGY: 300000 4.5565 10.9437 4.0184 0.0000 -10488.9435 1369.6716 0.0000 0.0000 1767.2560 -7332.4973 304.1463 -9099.7533 -7379.3867 300.6850 -401.0528 -342.5670 29957.6146 -29.4662 15.6212
ENERGY: 600000 7.4443 8.9748 2.1437 0.0000 -10515.7063 1434.4094 0.0000 0.0000 1803.1018 -7259.6323 310.3154 -9062.7341 -7349.4568 303.9940 11.7360 122.1771 29820.2066 14.1783 85.8208
ENERGY: 900000 1.8869 7.5750 3.7098 0.0000 -10647.1861 1461.8856 0.0000 0.0000 1765.6722 -7406.4566 303.8737 -9172.1287 -7343.1601 304.2395 238.5527 348.6360 29697.0032 13.9001 88.1313
ENERGY: 1200000 2.7267 14.7081 3.1526 0.0000 -10368.4811 1264.5212 0.0000 0.0000 1781.6498 -7301.7227 306.6234 -9083.3725 -7332.1383 304.3414 -1017.3225 -1038.7653 30085.0731 -97.8335 -37.7361
ENERGY: 1500000 1.7637 14.9023 2.2183 0.0000 -10732.3383 1552.0196 0.0000 0.0000 1761.4863 -7399.9481 303.1533 -9161.4344 -7345.1334 303.7111 1065.7587 1040.6173 29716.6580 -44.5623 11.2284
TCL: Running FEP window  18: Lambda1 0.1499999999999997 Lambda2 0.09999999999999969 [dLambda -0.05 ]
TCL: Setting parameter firsttimestep to 0
TCL: Setting parameter alchLambda to 0.1499999999999997
Info: NONBONDED TABLE R-SQUARED SPACING: 0.0625
Info: NONBONDED TABLE SIZE: 705 POINTS
TCL: Setting parameter alchLambda2 to 0.09999999999999969
Info: NONBONDED TABLE R-SQUARED SPACING: 0.0625
Info: NONBONDED TABLE SIZE: 705 POINTS
TCL: Running for 1500000 steps
ETITLE: TS BOND ANGLE DIHED IMPRP ELECT VDW BOUNDARY MISC KINETIC TOTAL TEMP POTENTIAL TOTALAVG TEMPAVG PRESSURE GPRESSURE VOLUME PRESSAVG GPRESSAVG
ENERGY: 0 1.7637 14.9023 2.2183 0.0000 -10732.3371 1552.2076 0.0000 0.0000 1760.6256 -7400.6196 303.0052 -9161.2452 -7400.6196 303.0052 972.3148 1032.1963 29716.6580 972.3148 1032.1963
ENERGY: 300000 5.5263 17.1470 3.5581 0.0000 -10594.0167 1420.5634 0.0000 0.0000 1714.6560 -7432.5659 295.0938 -9147.2219 -7388.3289 301.0108 -483.4640 -401.8885 29970.9602 129.6558 162.4767
ENERGY: 600000 0.3191 9.4027 2.3854 0.0000 -10455.0584 1445.3531 0.0000 0.0000 1758.7723 -7238.8258 302.6862 -8997.5981 -7363.0051 299.9413 364.2383 381.1937 30343.7070 -12.4481 22.0267
ENERGY: 900000 1.0203 5.9739 2.3339 0.0000 -10701.8679 1525.9111 0.0000 0.0000 1756.4817 -7410.1469 302.2920 -9166.6287 -7361.8549 299.8679 818.5443 939.8574 29404.1716 25.8127 68.9324
ENERGY: 1200000 1.3740 10.7912 2.1372 0.0000 -10583.3118 1447.9619 0.0000 0.0000 1756.3811 -7364.6665 302.2747 -9121.0476 -7367.5472 299.7924 172.6272 187.9685 29875.8205 89.8695 133.6488
ENERGY: 1500000 0.4719 12.1725 2.9968 0.0000 -10524.8881 1429.0838 0.0000 0.0000 1724.4100 -7355.7529 296.7724 -9080.1630 -7369.5509 300.3040 190.3889 183.2328 29878.6294 170.2938 217.9001
TCL: Running FEP window  19: Lambda1 0.09999999999999969 Lambda2 0.049999999999999684 [dLambda -0.05 ]
TCL: Setting parameter firsttimestep to 0
TCL: Setting parameter alchLambda to 0.09999999999999969
Info: NONBONDED TABLE R-SQUARED SPACING: 0.0625
Info: NONBONDED TABLE SIZE: 705 POINTS
TCL: Setting parameter alchLambda2 to 0.049999999999999684
Info: NONBONDED TABLE R-SQUARED SPACING: 0.0625
Info: NONBONDED TABLE SIZE: 705 POINTS
TCL: Running for 1500000 steps
ETITLE: TS BOND ANGLE DIHED IMPRP ELECT VDW BOUNDARY MISC KINETIC TOTAL TEMP POTENTIAL TOTALAVG TEMPAVG PRESSURE GPRESSURE VOLUME PRESSAVG GPRESSAVG
ENERGY: 0 0.4719 12.1725 2.9968 0.0000 -10524.8887 1428.7551 0.0000 0.0000 1723.5474 -7356.9449 296.6240 -9080.4923 -7356.9449 296.6240 90.6614 181.1928 29878.6294 90.6614 181.1928
ENERGY: 300000 3.8168 13.0954 3.1067 0.0000 -10644.9396 1484.9921 0.0000 0.0000 1772.2447 -7367.6839 305.0048 -9139.9286 -7364.5683 299.8748 490.5297 601.8334 29258.2699 237.0390 316.2606
ENERGY: 600000 2.0103 11.2399 2.1469 0.0000 -10444.1992 1370.9811 0.0000 0.0000 1761.4682 -7296.3529 303.1502 -9057.8211 -7358.3059 299.8441 -442.7330 -390.9997 30114.5165 15.4970 90.3130
ENERGY: 900000 2.1603 11.5628 2.4646 0.0000 -10472.3414 1360.2315 0.0000 0.0000 1718.6182 -7377.3040 295.7757 -9095.9222 -7372.8548 298.3505 -590.1663 -562.2892 30403.1078 -90.6370 -25.8988
ENERGY: 1200000 2.9579 6.9878 4.7101 0.0000 -10460.6160 1401.2404 0.0000 0.0000 1802.6647 -7242.0552 310.2401 -9044.7199 -7360.8476 298.9013 -17.1885 51.3853 29939.6575 -111.0851 -38.5748
ENERGY: 1500000 1.8835 10.6463 2.0358 0.0000 -10667.9403 1507.8009 0.0000 0.0000 1755.9348 -7389.6391 302.1979 -9145.5738 -7370.3597 298.9323 743.5219 819.7915 29627.0708 -59.9262 14.9766
TCL: Running FEP window  20: Lambda1 0.049999999999999684 Lambda2 0.0    [dLambda -0.049999999999999684]
TCL: Setting parameter firsttimestep to 0
TCL: Setting parameter alchLambda to 0.049999999999999684
Info: NONBONDED TABLE R-SQUARED SPACING: 0.0625
Info: NONBONDED TABLE SIZE: 705 POINTS
TCL: Setting parameter alchLambda2 to 0.0
Info: NONBONDED TABLE R-SQUARED SPACING: 0.0625
Info: NONBONDED TABLE SIZE: 705 POINTS
TCL: Running for 1500000 steps
ETITLE: TS BOND ANGLE DIHED IMPRP ELECT VDW BOUNDARY MISC KINETIC TOTAL TEMP POTENTIAL TOTALAVG TEMPAVG PRESSURE GPRESSURE VOLUME PRESSAVG GPRESSAVG
ENERGY: 0 1.8835 10.6463 2.0358 0.0000 -10667.9435 1507.4335 0.0000 0.0000 1755.0864 -7390.8580 302.0519 -9145.9445 -7390.8580 302.0519 728.8474 813.3948 29627.0708 728.8474 813.3948
ENERGY: 300000 2.1620 8.8879 3.8905 0.0000 -10542.2799 1437.7475 0.0000 0.0000 1762.2659 -7327.3261 303.2875 -9089.5920 -7339.0843 302.5435 111.4033 198.6070 29810.4651 684.0290 734.9647
ENERGY: 600000 1.4214 10.3292 2.7706 0.0000 -10479.4791 1430.4111 0.0000 0.0000 1783.3833 -7251.1636 306.9218 -9034.5469 -7344.2770 303.0044 313.2663 415.9651 29886.1229 455.6076 517.7883
ENERGY: 900000 1.4555 11.2146 2.6582 0.0000 -10649.6196 1400.2221 0.0000 0.0000 1751.7892 -7482.2801 301.4844 -9234.0693 -7361.8215 302.2429 -490.6550 -362.0765 29639.6582 109.4651 177.8191
ENERGY: 1200000 2.5398 13.2711 4.3060 0.0000 -10659.1636 1466.6097 0.0000 0.0000 1767.5591 -7404.8778 304.1984 -9172.4370 -7373.8225 301.4707 307.3921 414.2093 29341.9321 55.3303 132.1439
ENERGY: 1500000 1.3146 11.1114 6.4892 0.0000 -10557.2595 1394.8418 0.0000 0.0000 1704.0100 -7439.4926 293.2616 -9143.5025 -7376.8587 300.7598 -395.6207 -345.1303 29923.6491 29.0938 99.2414
TCL: Exiting due to exit command.
