Info: SIMULATION PARAMETERS:
Info: TIMESTEP               2
Info: NUMBER OF STEPS        0
Info: STEPS PER CYCLE        10
Info: PERIODIC CELL BASIS 1  34.613 0 0
Info: PERIODIC CELL BASIS 2  0 29.1835 0
Info: PERIODIC CELL BASIS 3  0 0 29.6758
Info: PERIODIC CELL CENTER   0 0 0
Info: WRAPPING WATERS AROUND PERIODIC BOUNDARIES ON OUTPUT.
Info: WRAPPING ALL CLUSTERS AROUND PERIODIC BOUNDARIES ON OUTPUT.
Info: FIRST LDB TIMESTEP     50
Info: LAST LDB TIMESTEP     -1
Info: HOM BACKGROUND SCALING 1
Info: PME BACKGROUND SCALING 1
Info: MIN ATOMS PER PATCH    40
Info: EMPTY PATCH LOAD       40 ATOMS
Info: VELOCITY FILE          mobley_7157427_equil.vel
Info: CENTER OF MASS MOVING INITIALLY? NO
Info: DIELECTRIC             1
Info: EXCLUDE                SCALED ONE-FOUR
Info: 1-4 ELECTROSTATICS SCALED BY 0.833333
Info: MODIFIED 1-4 VDW PARAMETERS WILL BE USED
Info: DCD FILENAME           mobley_7157427_prod.dcd
Info: DCD FREQUENCY          100000
Info: DCD FIRST STEP         100000
Info: DCD FILE WILL CONTAIN UNIT CELL DATA
Info: XST FILENAME           mobley_7157427_prod.xst
Info: XST FREQUENCY          100000
Info: NO VELOCITY DCD OUTPUT
Info: NO FORCE DCD OUTPUT
Info: OUTPUT FILENAME        mobley_7157427_prod
Info: BINARY OUTPUT FILES WILL BE USED
Info: RESTART FILENAME       mobley_7157427_prod.restart
Info: RESTART FREQUENCY      100000
Info: BINARY RESTART FILES WILL BE USED
Info: CUTOFF                 9
Info: PAIRLIST DISTANCE      11
Info: PAIRLIST SHRINK RATE   0.01
Info: PAIRLIST GROW RATE     0.01
Info: PAIRLIST TRIGGER       0.3
Info: PAIRLISTS PER CYCLE    2
Info: PAIRLISTS ENABLED
Info: MARGIN                 2
Info: HYDROGEN GROUP CUTOFF  2.5
Info: PATCH DIMENSION        15.5
Info: ENERGY OUTPUT STEPS    100000
Info: ENERGY EVALUATION STEPS    100000
Info: OUTPUT ENERGY PRECISION 4
Info: CROSSTERM ENERGY INCLUDED IN DIHEDRAL
Info: TIMING OUTPUT STEPS    1000000
Info: PRESSURE OUTPUT STEPS  100000
Info: ALCHEMICAL FEP ON
Info: FEP CURRENT LAMBDA VALUE     1
Info: FEP COMPARISON LAMBDA VALUE  0.95
Info: FEP INTRA-ALCHEMICAL NON-BONDED INTERACTIONS WILL BE RETAINED
Info: FEP INTRA-ALCHEMICAL BONDED INTERACTIONS WILL BE RETAINED
Info: FEP VDW SHIFTING COEFFICIENT 5
Info: FEP ELEC. ACTIVE FOR ANNIHILATED PARTICLES BETWEEN LAMBDA = 0 AND LAMBDA = 0.5
Info: FEP ELEC. ACTIVE FOR EXNIHILATED PARTICLES BETWEEN LAMBDA = 0.5 AND LAMBDA = 1
Info: FEP VDW ACTIVE FOR ANNIHILATED PARTICLES BETWEEN LAMBDA = 0 AND LAMBDA = 1
Info: FEP VDW ACTIVE FOR EXNIHILATED PARTICLES BETWEEN LAMBDA = 0 AND LAMBDA = 1
Info: FEP BOND ACTIVE FOR ANNIHILATED PARTICLES BETWEEN LAMBDA = 1 AND LAMBDA = 1
Info: FEP BOND ACTIVE FOR EXNIHILATED PARTICLES BETWEEN LAMBDA = 0 AND LAMBDA = 0
Info: LANGEVIN DYNAMICS ACTIVE
Info: LANGEVIN TEMPERATURE   300
Info: LANGEVIN USING BBK INTEGRATOR
Info: LANGEVIN DAMPING COEFFICIENT IS 1 INVERSE PS
Info: LANGEVIN DYNAMICS APPLIED TO HYDROGENS
Info: LANGEVIN PISTON PRESSURE CONTROL ACTIVE
Info:        TARGET PRESSURE IS 1.01325 BAR
Info:     OSCILLATION PERIOD IS 50 FS
Info:             DECAY TIME IS 25 FS
Info:     PISTON TEMPERATURE IS 300 K
Info:       PRESSURE CONTROL IS GROUP-BASED
Info:    INITIAL STRAIN RATE IS -8.78326e-05 -8.78326e-05 -8.78326e-05
Info:       CELL FLUCTUATION IS ISOTROPIC
Info: PARTICLE MESH EWALD (PME) ACTIVE
Info: PME TOLERANCE               1e-06
Info: PME EWALD COEFFICIENT       0.348832
Info: PME INTERPOLATION ORDER     4
Info: PME GRID DIMENSIONS         36 32 32
Info: PME MAXIMUM GRID SPACING    1
Info: PME CALCULATION WILL BE PERFORMED ON GPU
Info: FULL ELECTROSTATIC EVALUATION FREQUENCY      2
Info: USING VERLET I (r-RESPA) MTS SCHEME.
Info: C1 SPLITTING OF LONG RANGE ELECTROSTATICS
Info: PLACING ATOMS IN PATCHES BY HYDROGEN GROUPS
Info: RIGID BONDS TO HYDROGEN : ALL
Info:         ERROR TOLERANCE : 1e-08
Info:          MAX ITERATIONS : 100
Info: RIGID WATER USING SETTLE ALGORITHM
Info: RANDOM NUMBER SEED     1744014990
Info: USE HYDROGEN BONDS?    NO
Info: Using AMBER format force field!
Info: AMBER PARM FILE        mobley_7157427.prmtop
Info: COORDINATE PDB         mobley_7157427.pdb
Info: Exclusions will be read from PARM file!
Info: SCNB (VDW SCALING)     2
Info: USING ARITHMETIC MEAN TO COMBINE L-J SIGMA PARAMETERS
Info: BINARY COORDINATES     mobley_7157427_equil.coor
Info: SUMMARY OF PARAMETERS:
Info: 6 BONDS
Info: 7 ANGLES
Info:   7 HARMONIC
Info:   0 COSINE-BASED
Info: 8 DIHEDRAL
Info: 0 IMPROPER
Info: 0 CROSSTERM
Info: 0 VDW
Info: 21 VDW_PAIRS
Info: 0 NBTHOLE_PAIRS
Info: To read alchdata from file: mobley_7157427.pdb
Info: To read alchflag data from column: 5
Info: STRUCTURE SUMMARY:
Info: 2936 ATOMS
Info: 2935 BONDS
Info: 42 ANGLES
Info: 64 DIHEDRALS
Info: 0 IMPROPERS
Info: 0 CROSSTERMS
Info: 3031 EXCLUSIONS
Info: 2928 RIGID BONDS
Info: ALCH: 0 ATOMS TO DISAPPEAR IN FINAL STATE
Info: ALCH: 23 ATOMS TO APPEAR IN FINAL STATE
Info: 5880 DEGREES OF FREEDOM
Info: 979 HYDROGEN GROUPS
Info: 4 ATOMS IN LARGEST HYDROGEN GROUP
Info: 979 MIGRATION GROUPS
Info: 4 ATOMS IN LARGEST MIGRATION GROUP
Info: TOTAL MASS = 17628.2 amu
Info: TOTAL CHARGE = -0.000200003 e
Info: MASS DENSITY = 0.976532 g/cm^3
Info: ATOM DENSITY = 0.0979436 atoms/A^3
Info: ADDED 0 IMPLICIT EXCLUSIONS
Info: NONBONDED TABLE R-SQUARED SPACING: 0.0625
Info: NONBONDED TABLE SIZE: 705 POINTS
Info: REMOVING COM VELOCITY 0.0149501 -0.0208998 0.218535
Info: Use 3D box decompostion in PME FFT.
Info: Updated CUDA force table with 4096 elements.
Info: Updated CUDA LJ table with 6 x 6 elements.
Info: Found 26 unique exclusion lists needing 84 bytes
TCL: Running for 1500000 steps
ETITLE: TS BOND ANGLE DIHED IMPRP ELECT VDW BOUNDARY MISC KINETIC TOTAL TEMP POTENTIAL TOTALAVG TEMPAVG PRESSURE GPRESSURE VOLUME PRESSAVG GPRESSAVG
ENERGY: 0 1.6675 12.1824 4.9301 0.0000 -10608.1293 1410.6131 0.0000 0.0000 1772.3471 -7406.3891 303.3625 -9178.7362 -7406.3891 303.3625 28.8869 107.1898 29976.4328 28.8869 107.1898
ENERGY: 300000 1.9550 9.6850 4.3094 0.0000 -10759.4469 1479.4290 0.0000 0.0000 1749.6367 -7514.4319 299.4752 -9264.0686 -7430.8467 300.6421 -49.1040 38.9718 30407.0570 -533.6204 -446.0384
ENERGY: 600000 0.9092 9.3611 3.4821 0.0000 -10573.0923 1375.6733 0.0000 0.0000 1753.0527 -7430.6139 300.0599 -9183.6666 -7437.9210 298.5165 -425.5391 -365.4618 30213.0250 -326.3666 -252.1941
ENERGY: 900000 5.6689 9.4082 6.4207 0.0000 -10535.2851 1403.6421 0.0000 0.0000 1742.8053 -7367.3398 298.3060 -9110.1451 -7411.9551 299.2548 157.7286 237.3263 30312.0184 -339.9305 -265.1226
ENERGY: 1200000 3.0713 11.9307 5.5200 0.0000 -10554.9589 1405.4192 0.0000 0.0000 1747.0777 -7381.9400 299.0372 -9129.0177 -7407.4074 299.7513 -252.8372 -199.4883 30996.2694 -294.6837 -221.6949
ENERGY: 1500000 1.3264 7.9653 3.4184 0.0000 -10537.9429 1342.8528 0.0000 0.0000 1758.8261 -7423.5538 301.0481 -9182.3798 -7403.4307 299.5268 -859.9377 -768.5530 30596.3223 -339.4381 -269.3848
TCL: Running FEP window   2: Lambda1 0.95   Lambda2 0.8999999999999999 [dLambda -0.050000000000000044]
TCL: Setting parameter firsttimestep to 0
TCL: Setting parameter alchLambda to 0.95
Info: NONBONDED TABLE R-SQUARED SPACING: 0.0625
Info: NONBONDED TABLE SIZE: 705 POINTS
TCL: Setting parameter alchLambda2 to 0.8999999999999999
Info: NONBONDED TABLE R-SQUARED SPACING: 0.0625
Info: NONBONDED TABLE SIZE: 705 POINTS
TCL: Running for 1500000 steps
ETITLE: TS BOND ANGLE DIHED IMPRP ELECT VDW BOUNDARY MISC KINETIC TOTAL TEMP POTENTIAL TOTALAVG TEMPAVG PRESSURE GPRESSURE VOLUME PRESSAVG GPRESSAVG
ENERGY: 0 1.3264 7.9653 3.4184 0.0000 -10537.8932 1342.7146 0.0000 0.0000 1757.9720 -7424.4964 300.9020 -9182.4684 -7424.4964 300.9020 -873.5486 -786.2021 30596.3223 -873.5486 -786.2021
ENERGY: 300000 1.5962 14.3456 5.0937 0.0000 -10639.5824 1437.1207 0.0000 0.0000 1794.4678 -7386.9584 307.1487 -9181.4262 -7389.8222 301.6085 175.6240 218.8566 30247.8597 191.7681 247.5526
ENERGY: 600000 2.3333 10.8740 4.7827 0.0000 -10668.3191 1454.8904 0.0000 0.0000 1789.7248 -7405.7138 306.3369 -9195.4386 -7382.1575 302.4232 -154.6780 -9.3892 30638.4407 -11.9159 62.4135
ENERGY: 900000 4.0479 8.1533 3.8025 0.0000 -10677.8826 1492.5554 0.0000 0.0000 1717.6129 -7451.7105 293.9939 -9169.3235 -7403.3663 301.2433 715.3604 728.4458 29621.7474 132.7577 184.4539
ENERGY: 1200000 4.8282 7.8924 5.4534 0.0000 -10569.5274 1367.1402 0.0000 0.0000 1750.7912 -7433.4220 299.6729 -9184.2132 -7407.9554 301.1439 -502.7916 -485.5559 30146.2831 2.2418 49.8624
ENERGY: 1500000 2.4594 10.9959 4.0851 0.0000 -10499.0487 1345.0761 0.0000 0.0000 1784.0456 -7352.3866 305.3648 -9136.4322 -7398.6243 301.2725 -477.6470 -422.0850 30455.6037 -40.1814 10.5895
TCL: Running FEP window   3: Lambda1 0.8999999999999999 Lambda2 0.8499999999999999 [dLambda -0.050000000000000044]
TCL: Setting parameter firsttimestep to 0
TCL: Setting parameter alchLambda to 0.8999999999999999
Info: NONBONDED TABLE R-SQUARED SPACING: 0.0625
Info: NONBONDED TABLE SIZE: 705 POINTS
TCL: Setting parameter alchLambda2 to 0.8499999999999999
Info: NONBONDED TABLE R-SQUARED SPACING: 0.0625
Info: NONBONDED TABLE SIZE: 705 POINTS
TCL: Running for 1500000 steps
ETITLE: TS BOND ANGLE DIHED IMPRP ELECT VDW BOUNDARY MISC KINETIC TOTAL TEMP POTENTIAL TOTALAVG TEMPAVG PRESSURE GPRESSURE VOLUME PRESSAVG GPRESSAVG
ENERGY: 0 2.4594 10.9958 4.0851 0.0000 -10498.6750 1345.6009 0.0000 0.0000 1783.1528 -7352.3810 305.2120 -9135.5339 -7352.3810 305.2120 -530.1945 -427.9578 30455.6037 -530.1945 -427.9578
ENERGY: 300000 4.4172 17.3284 4.4078 0.0000 -10675.4563 1446.0892 0.0000 0.0000 1736.8117 -7466.4019 297.2801 -9203.2135 -7408.6089 297.7412 224.0318 358.0607 29794.4587 -162.5470 -75.6764
ENERGY: 600000 1.9758 10.0404 3.5384 0.0000 -10715.6503 1538.7426 0.0000 0.0000 1747.4970 -7413.8561 299.1090 -9161.3531 -7383.8373 299.4148 1143.3203 1227.7976 29861.5764 91.7152 162.9242
ENERGY: 900000 1.6597 11.0928 6.4548 0.0000 -10635.3815 1450.5560 0.0000 0.0000 1739.1955 -7426.4227 297.6881 -9165.6182 -7386.9081 299.4403 11.9405 92.8768 30616.4293 -8.1675 60.3101
ENERGY: 1200000 0.7415 11.5963 5.3096 0.0000 -10707.3380 1368.7292 0.0000 0.0000 1686.5429 -7634.4185 288.6759 -9320.9614 -7409.0217 299.1427 -789.7347 -681.2320 29938.8170 -90.0516 -16.5432
ENERGY: 1500000 1.4709 11.2518 5.4497 0.0000 -10545.6759 1426.3270 0.0000 0.0000 1763.4117 -7337.7648 301.8330 -9101.1765 -7408.9100 299.1228 2.3688 111.2036 30148.1936 -109.9112 -31.6646
TCL: Running FEP window   4: Lambda1 0.8499999999999999 Lambda2 0.7999999999999998 [dLambda -0.050000000000000044]
TCL: Setting parameter firsttimestep to 0
TCL: Setting parameter alchLambda to 0.8499999999999999
Info: NONBONDED TABLE R-SQUARED SPACING: 0.0625
Info: NONBONDED TABLE SIZE: 705 POINTS
TCL: Setting parameter alchLambda2 to 0.7999999999999998
Info: NONBONDED TABLE R-SQUARED SPACING: 0.0625
Info: NONBONDED TABLE SIZE: 705 POINTS
TCL: Running for 1500000 steps
ETITLE: TS BOND ANGLE DIHED IMPRP ELECT VDW BOUNDARY MISC KINETIC TOTAL TEMP POTENTIAL TOTALAVG TEMPAVG PRESSURE GPRESSURE VOLUME PRESSAVG GPRESSAVG
ENERGY: 0 1.4709 11.2518 5.4497 0.0000 -10545.4733 1426.8837 0.0000 0.0000 1762.5357 -7337.8815 301.6831 -9100.4172 -7337.8815 301.6831 16.8525 107.8162 30148.1936 16.8525 107.8162
ENERGY: 300000 1.9665 12.8592 4.5972 0.0000 -10640.5591 1387.8437 0.0000 0.0000 1806.7482 -7426.5444 309.2507 -9233.2925 -7389.4752 301.1576 -422.1739 -339.0620 30273.2581 35.4021 120.2927
ENERGY: 600000 2.6713 12.2734 5.3881 0.0000 -10735.8518 1519.6472 0.0000 0.0000 1691.2958 -7504.5760 289.4894 -9195.8718 -7408.1232 298.5722 1012.1018 1075.9000 29421.1265 58.9779 141.3672
ENERGY: 900000 3.3719 12.1207 6.7807 0.0000 -10659.9276 1469.0722 0.0000 0.0000 1775.9754 -7392.6066 303.9835 -9168.5820 -7393.4215 299.6928 480.4620 491.0619 30040.3287 96.8279 172.9428
ENERGY: 1200000 4.4443 10.7571 3.5750 0.0000 -10555.3382 1419.6991 0.0000 0.0000 1795.5002 -7321.3624 307.3254 -9116.8626 -7373.2653 301.6024 -48.3203 4.8128 30597.5385 88.6638 161.5622
ENERGY: 1500000 2.2701 7.3596 6.0117 0.0000 -10702.7452 1474.7746 0.0000 0.0000 1746.1834 -7466.1458 298.8842 -9212.3292 -7387.8124 301.1801 481.6434 494.9667 29914.1981 51.5224 123.9272
TCL: Running FEP window   5: Lambda1 0.7999999999999998 Lambda2 0.7499999999999998 [dLambda -0.050000000000000044]
TCL: Setting parameter firsttimestep to 0
TCL: Setting parameter alchLambda to 0.7999999999999998
Info: NONBONDED TABLE R-SQUARED SPACING: 0.0625
Info: NONBONDED TABLE SIZE: 705 POINTS
TCL: Setting parameter alchLambda2 to 0.7499999999999998
Info: NONBONDED TABLE R-SQUARED SPACING: 0.0625
Info: NONBONDED TABLE SIZE: 705 POINTS
TCL: Running for 1500000 steps
ETITLE: TS BOND ANGLE DIHED IMPRP ELECT VDW BOUNDARY MISC KINETIC TOTAL TEMP POTENTIAL TOTALAVG TEMPAVG PRESSURE GPRESSURE VOLUME PRESSAVG GPRESSAVG
ENERGY: 0 2.2701 7.3596 6.0117 0.0000 -10702.5055 1475.3252 0.0000 0.0000 1745.3752 -7466.1638 298.7458 -9211.5389 -7466.1638 298.7458 398.7462 487.2940 29914.1981 398.7462 487.2940
ENERGY: 300000 3.2894 8.1002 4.8808 0.0000 -10571.6547 1343.5679 0.0000 0.0000 1755.6355 -7456.1809 300.5020 -9211.8164 -7422.3038 302.4964 -599.4829 -503.0495 29875.3279 -166.4454 -114.1785
ENERGY: 600000 1.7601 11.2802 3.9561 0.0000 -10567.8492 1431.6351 0.0000 0.0000 1833.0663 -7286.1514 313.7554 -9119.2177 -7424.2760 303.9920 178.9832 286.2890 30500.0425 -49.3314 -2.7143
ENERGY: 900000 0.6485 12.5973 4.5751 0.0000 -10710.2753 1479.8285 0.0000 0.0000 1708.9597 -7503.6662 292.5128 -9212.6259 -7440.3900 302.6905 259.4120 333.7507 29989.6088 -3.8516 51.8701
ENERGY: 1200000 1.4388 15.0322 3.4982 0.0000 -10454.5863 1334.7239 0.0000 0.0000 1697.5828 -7402.3104 290.5655 -9099.8932 -7436.5949 301.3263 -911.9143 -865.9338 30944.4139 -3.7428 56.0891
ENERGY: 1500000 1.2851 13.5761 4.1120 0.0000 -10588.6141 1348.9783 0.0000 0.0000 1746.2276 -7474.4350 298.8917 -9220.6626 -7445.4838 300.0094 -597.8093 -464.7672 30084.8536 -95.1513 -28.1019
TCL: Running FEP window   6: Lambda1 0.7499999999999998 Lambda2 0.6999999999999997 [dLambda -0.050000000000000044]
TCL: Setting parameter firsttimestep to 0
TCL: Setting parameter alchLambda to 0.7499999999999998
Info: NONBONDED TABLE R-SQUARED SPACING: 0.0625
Info: NONBONDED TABLE SIZE: 705 POINTS
TCL: Setting parameter alchLambda2 to 0.6999999999999997
Info: NONBONDED TABLE R-SQUARED SPACING: 0.0625
Info: NONBONDED TABLE SIZE: 705 POINTS
TCL: Running for 1500000 steps
ETITLE: TS BOND ANGLE DIHED IMPRP ELECT VDW BOUNDARY MISC KINETIC TOTAL TEMP POTENTIAL TOTALAVG TEMPAVG PRESSURE GPRESSURE VOLUME PRESSAVG GPRESSAVG
ENERGY: 0 1.2851 13.5761 4.1120 0.0000 -10588.3594 1349.3160 0.0000 0.0000 1745.3210 -7474.7493 298.7366 -9220.0703 -7474.7493 298.7366 -562.1032 -471.2187 30084.8536 -562.1032 -471.2187
ENERGY: 300000 1.1219 14.6435 3.8134 0.0000 -10498.0225 1415.3273 0.0000 0.0000 1770.2596 -7292.8568 303.0051 -9063.1164 -7397.4366 301.6436 -11.3561 88.1731 30942.9741 -44.4051 34.3007
ENERGY: 600000 2.9738 12.0143 4.4828 0.0000 -10583.8050 1453.9610 0.0000 0.0000 1795.9241 -7314.4490 307.3980 -9110.3731 -7416.8943 300.3407 373.3759 473.8974 30102.0330 -62.6063 21.3481
ENERGY: 900000 2.0236 9.1241 4.8557 0.0000 -10675.2137 1469.9815 0.0000 0.0000 1690.6661 -7498.5627 289.3816 -9189.2288 -7412.4960 300.2436 317.9926 387.0972 29949.9281 -147.1492 -73.0348
ENERGY: 1200000 3.5871 9.0019 4.9092 0.0000 -10658.2096 1456.7307 0.0000 0.0000 1755.0047 -7428.9760 300.3941 -9183.9808 -7408.1435 301.0075 76.8472 135.3965 30035.7104 -94.9747 -24.5906
ENERGY: 1500000 2.1579 8.4387 5.3133 0.0000 -10677.6185 1490.7284 0.0000 0.0000 1730.7608 -7440.2194 296.2444 -9170.9802 -7404.0249 301.3928 389.3044 467.2790 30052.8094 -58.9262 10.4176
TCL: Running FEP window   7: Lambda1 0.6999999999999997 Lambda2 0.6499999999999997 [dLambda -0.050000000000000044]
TCL: Setting parameter firsttimestep to 0
TCL: Setting parameter alchLambda to 0.6999999999999997
Info: NONBONDED TABLE R-SQUARED SPACING: 0.0625
Info: NONBONDED TABLE SIZE: 705 POINTS
TCL: Setting parameter alchLambda2 to 0.6499999999999997
Info: NONBONDED TABLE R-SQUARED SPACING: 0.0625
Info: NONBONDED TABLE SIZE: 705 POINTS
TCL: Running for 1500000 steps
ETITLE: TS BOND ANGLE DIHED IMPRP ELECT VDW BOUNDARY MISC KINETIC TOTAL TEMP POTENTIAL TOTALAVG TEMPAVG PRESSURE GPRESSURE VOLUME PRESSAVG GPRESSAVG
ENERGY: 0 2.1579 8.4387 5.3133 0.0000 -10677.6696 1490.8174 0.0000 0.0000 1729.8737 -7441.0686 296.0925 -9170.9423 -7441.0686 296.0925 361.1273 454.7639 30052.8094 361.1273 454.7639
ENERGY: 300000 1.9630 8.2150 4.5090 0.0000 -10617.0693 1421.3384 0.0000 0.0000 1765.7195 -7415.3243 302.2281 -9181.0438 -7405.6625 298.8989 -272.6632 -165.7143 30443.2772 -276.5988 -189.1543
ENERGY: 600000 0.5905 12.5845 3.8788 0.0000 -10513.6219 1349.3687 0.0000 0.0000 1774.4550 -7372.7444 303.7233 -9147.1994 -7395.7509 299.6741 -663.6114 -558.1190 30281.1526 -348.0429 -273.7579
ENERGY: 900000 2.4497 11.3509 3.5448 0.0000 -10485.6126 1383.0345 0.0000 0.0000 1808.0984 -7277.1343 309.4818 -9085.2327 -7394.0998 300.3378 111.1651 94.6141 29961.4711 -306.4557 -248.7540
ENERGY: 1200000 1.5835 9.5021 7.0035 0.0000 -10629.4072 1460.3147 0.0000 0.0000 1770.9374 -7380.0660 303.1212 -9151.0034 -7383.6747 300.9742 66.8691 168.0349 30368.2108 -265.0027 -204.7172
ENERGY: 1500000 2.8801 11.2028 3.6746 0.0000 -10484.1533 1333.0359 0.0000 0.0000 1716.6375 -7416.7223 293.8270 -9133.3598 -7386.0624 300.4871 -607.5535 -518.9956 29977.2418 -251.3268 -191.8634
TCL: Running FEP window   8: Lambda1 0.6499999999999997 Lambda2 0.5999999999999996 [dLambda -0.050000000000000044]
TCL: Setting parameter firsttimestep to 0
TCL: Setting parameter alchLambda to 0.6499999999999997
Info: NONBONDED TABLE R-SQUARED SPACING: 0.0625
Info: NONBONDED TABLE SIZE: 705 POINTS
TCL: Setting parameter alchLambda2 to 0.5999999999999996
Info: NONBONDED TABLE R-SQUARED SPACING: 0.0625
Info: NONBONDED TABLE SIZE: 705 POINTS
TCL: Running for 1500000 steps
ETITLE: TS BOND ANGLE DIHED IMPRP ELECT VDW BOUNDARY MISC KINETIC TOTAL TEMP POTENTIAL TOTALAVG TEMPAVG PRESSURE GPRESSURE VOLUME PRESSAVG GPRESSAVG
ENERGY: 0 2.8801 11.2028 3.6746 0.0000 -10484.1553 1333.5907 0.0000 0.0000 1715.7535 -7417.0535 293.6757 -9132.8071 -7417.0535 293.6757 -616.5383 -520.8151 29977.2418 -616.5383 -520.8151
ENERGY: 300000 2.5628 9.6573 5.3922 0.0000 -10433.7219 1356.6508 0.0000 0.0000 1760.3013 -7299.1574 301.3007 -9059.4588 -7383.7911 297.8805 -383.7574 -371.4550 30288.6563 -499.6731 -448.0880
ENERGY: 600000 2.6206 11.5101 3.3308 0.0000 -10499.0309 1383.6662 0.0000 0.0000 1685.6482 -7412.2550 288.5227 -9097.9032 -7379.5600 297.4342 -275.4184 -198.4987 30406.4029 -390.9090 -328.4179
ENERGY: 900000 2.3502 15.3922 3.8216 0.0000 -10425.7003 1299.1802 0.0000 0.0000 1761.1930 -7343.7630 301.4533 -9104.9561 -7383.8034 298.3061 -1009.8740 -986.3061 30563.0546 -468.4542 -403.0850
ENERGY: 1200000 1.4160 11.5916 4.6930 0.0000 -10430.8764 1334.6747 0.0000 0.0000 1755.6534 -7322.8476 300.5051 -9078.5010 -7380.9827 299.5148 -388.7910 -297.9784 30181.7906 -369.6093 -300.9216
ENERGY: 1500000 2.4662 5.9170 3.3827 0.0000 -10496.4948 1358.3293 0.0000 0.0000 1707.5596 -7418.8400 292.2732 -9126.3996 -7390.7649 299.5256 -659.1520 -624.4516 30363.3732 -381.4774 -320.4533
TCL: Running FEP window   9: Lambda1 0.5999999999999996 Lambda2 0.5499999999999996 [dLambda -0.050000000000000044]
TCL: Setting parameter firsttimestep to 0
TCL: Setting parameter alchLambda to 0.5999999999999996
Info: NONBONDED TABLE R-SQUARED SPACING: 0.0625
Info: NONBONDED TABLE SIZE: 705 POINTS
TCL: Setting parameter alchLambda2 to 0.5499999999999996
Info: NONBONDED TABLE R-SQUARED SPACING: 0.0625
Info: NONBONDED TABLE SIZE: 705 POINTS
TCL: Running for 1500000 steps
ETITLE: TS BOND ANGLE DIHED IMPRP ELECT VDW BOUNDARY MISC KINETIC TOTAL TEMP POTENTIAL TOTALAVG TEMPAVG PRESSURE GPRESSURE VOLUME PRESSAVG GPRESSAVG
ENERGY: 0 2.4662 5.9170 3.3827 0.0000 -10496.5102 1358.6246 0.0000 0.0000 1706.6661 -7419.4536 292.1202 -9126.1197 -7419.4536 292.1202 -717.1026 -631.2945 30363.3732 -717.1026 -631.2945
ENERGY: 300000 2.3132 12.9352 3.5271 0.0000 -10554.6888 1382.6991 0.0000 0.0000 1737.9924 -7415.2218 297.4822 -9153.2141 -7436.0551 294.7798 -478.5906 -430.2893 30272.8205 -500.2951 -408.1723
ENERGY: 600000 1.5394 9.7337 3.7195 0.0000 -10474.6536 1364.9104 0.0000 0.0000 1732.0676 -7362.6829 296.4681 -9094.7505 -7408.3625 297.1636 -158.8296 -69.5232 30003.8974 -494.5034 -407.6369
ENERGY: 900000 2.0310 11.1517 4.7327 0.0000 -10642.7891 1422.7796 0.0000 0.0000 1750.2389 -7451.8550 299.5783 -9202.0940 -7407.0850 298.2118 -9.9393 17.1182 30140.6949 -326.5021 -249.6049
ENERGY: 1200000 1.6919 8.9133 4.3571 0.0000 -10400.3894 1311.4417 0.0000 0.0000 1789.6601 -7284.3252 306.3258 -9073.9853 -7386.2959 299.1987 -705.6664 -599.3273 30566.4833 -404.8354 -326.3468
ENERGY: 1500000 2.4707 11.3832 6.8796 0.0000 -10685.3733 1440.1608 0.0000 0.0000 1768.2736 -7456.2054 302.6652 -9224.4790 -7390.2995 298.6538 -120.2564 -54.5132 30201.4521 -324.0273 -251.4523
TCL: Running FEP window  10: Lambda1 0.5499999999999996 Lambda2 0.4999999999999996 [dLambda -0.04999999999999999]
TCL: Setting parameter firsttimestep to 0
TCL: Setting parameter alchLambda to 0.5499999999999996
Info: NONBONDED TABLE R-SQUARED SPACING: 0.0625
Info: NONBONDED TABLE SIZE: 705 POINTS
TCL: Setting parameter alchLambda2 to 0.4999999999999996
Info: NONBONDED TABLE R-SQUARED SPACING: 0.0625
Info: NONBONDED TABLE SIZE: 705 POINTS
TCL: Running for 1500000 steps
ETITLE: TS BOND ANGLE DIHED IMPRP ELECT VDW BOUNDARY MISC KINETIC TOTAL TEMP POTENTIAL TOTALAVG TEMPAVG PRESSURE GPRESSURE VOLUME PRESSAVG GPRESSAVG
ENERGY: 0 2.4707 11.3832 6.8796 0.0000 -10685.0313 1440.1762 0.0000 0.0000 1767.3824 -7456.7392 302.5127 -9224.1216 -7456.7392 302.5127 -156.6776 -63.1202 30201.4521 -156.6776 -63.1202
ENERGY: 300000 1.8404 13.7283 3.6882 0.0000 -10648.9979 1390.6579 0.0000 0.0000 1656.7053 -7582.3778 283.5687 -9239.0831 -7466.1898 298.1613 -747.5784 -690.6099 30480.1558 -266.1734 -203.6114
ENERGY: 600000 1.1128 11.0599 5.2316 0.0000 -10675.0682 1469.8554 0.0000 0.0000 1759.1951 -7428.6133 301.1113 -9187.8083 -7425.3396 300.2457 217.3512 307.0101 30104.5386 -177.8894 -112.5643
ENERGY: 900000 5.5771 9.5252 4.4919 0.0000 -10633.5097 1487.1756 0.0000 0.0000 1758.9614 -7367.7785 301.0713 -9126.7399 -7412.1479 300.2682 906.5681 1016.8362 29614.2173 -75.1644 -4.3772
ENERGY: 1200000 2.6158 11.2948 3.0475 0.0000 -10581.2499 1439.3948 0.0000 0.0000 1739.6479 -7385.2491 297.7655 -9124.8970 -7410.5960 300.1289 -57.3814 42.6458 30399.0040 -120.7882 -47.4635
ENERGY: 1500000 2.9502 9.4335 3.1230 0.0000 -10521.0353 1422.9036 0.0000 0.0000 1750.9353 -7331.6897 299.6975 -9082.6250 -7415.3700 300.0382 -38.8488 3.0330 30386.7108 -117.7738 -48.1314
TCL: Running FEP window  11: Lambda1 0.4999999999999996 Lambda2 0.4499999999999996 [dLambda -0.04999999999999999]
TCL: Setting parameter firsttimestep to 0
TCL: Setting parameter alchLambda to 0.4999999999999996
Info: NONBONDED TABLE R-SQUARED SPACING: 0.0625
Info: NONBONDED TABLE SIZE: 705 POINTS
TCL: Setting parameter alchLambda2 to 0.4499999999999996
Info: NONBONDED TABLE R-SQUARED SPACING: 0.0625
Info: NONBONDED TABLE SIZE: 705 POINTS
TCL: Running for 1500000 steps
ETITLE: TS BOND ANGLE DIHED IMPRP ELECT VDW BOUNDARY MISC KINETIC TOTAL TEMP POTENTIAL TOTALAVG TEMPAVG PRESSURE GPRESSURE VOLUME PRESSAVG GPRESSAVG
ENERGY: 0 2.9502 9.4335 3.1230 0.0000 -10521.1196 1422.7396 0.0000 0.0000 1750.0835 -7332.7898 299.5517 -9082.8733 -7332.7898 299.5517 -92.0080 -9.0445 30386.7108 -92.0080 -9.0445
ENERGY: 300000 1.1708 15.7796 6.6118 0.0000 -10631.9833 1407.3352 0.0000 0.0000 1783.0286 -7418.0573 305.1908 -9201.0859 -7393.2995 303.9957 139.5376 165.3385 29485.3435 265.2219 319.9140
ENERGY: 600000 4.6475 17.2233 4.4714 0.0000 -10724.9554 1497.9570 0.0000 0.0000 1759.0763 -7441.5799 301.0910 -9200.6561 -7390.1695 304.8131 370.1429 436.2525 30196.7528 204.3969 260.9675
ENERGY: 900000 1.5765 13.0364 4.1059 0.0000 -10508.6799 1327.7549 0.0000 0.0000 1734.3945 -7427.8117 296.8663 -9162.2062 -7387.1111 304.0620 -816.4694 -761.9636 30193.8612 -19.6251 35.3159
ENERGY: 1200000 2.0206 11.1445 6.3889 0.0000 -10579.8511 1352.3432 0.0000 0.0000 1747.4738 -7460.4801 299.1050 -9207.9539 -7397.8859 303.3241 -573.8715 -470.0744 29908.1304 -48.3831 7.9798
ENERGY: 1500000 0.8183 13.8393 4.3926 0.0000 -10688.2714 1515.1166 0.0000 0.0000 1735.5768 -7418.5279 297.0687 -9154.1047 -7403.4828 301.5054 659.9152 692.9299 30441.5618 -61.5175 -7.8316
TCL: Running FEP window  12: Lambda1 0.4499999999999996 Lambda2 0.39999999999999963 [dLambda -0.04999999999999999]
TCL: Setting parameter firsttimestep to 0
TCL: Setting parameter alchLambda to 0.4499999999999996
Info: NONBONDED TABLE R-SQUARED SPACING: 0.0625
Info: NONBONDED TABLE SIZE: 705 POINTS
TCL: Setting parameter alchLambda2 to 0.39999999999999963
Info: NONBONDED TABLE R-SQUARED SPACING: 0.0625
Info: NONBONDED TABLE SIZE: 705 POINTS
TCL: Running for 1500000 steps
ETITLE: TS BOND ANGLE DIHED IMPRP ELECT VDW BOUNDARY MISC KINETIC TOTAL TEMP POTENTIAL TOTALAVG TEMPAVG PRESSURE GPRESSURE VOLUME PRESSAVG GPRESSAVG
ENERGY: 0 0.8183 13.8393 4.3926 0.0000 -10688.2711 1515.6433 0.0000 0.0000 1734.7279 -7418.8497 296.9234 -9153.5777 -7418.8497 296.9234 610.9179 694.2803 30441.5618 610.9179 694.2803
ENERGY: 300000 2.1647 7.9804 4.3309 0.0000 -10558.8327 1450.1438 0.0000 0.0000 1778.3508 -7315.8621 304.3901 -9094.2129 -7405.8868 299.3164 386.9788 451.6622 29975.1789 -71.1384 15.1614
ENERGY: 600000 1.8935 10.2801 4.8622 0.0000 -10753.6304 1527.9183 0.0000 0.0000 1773.0292 -7435.6470 303.4792 -9208.6762 -7395.1121 300.8375 846.0801 877.2460 29599.8334 126.8722 191.7457
ENERGY: 900000 2.3589 13.8504 4.8900 0.0000 -10598.2603 1436.9290 0.0000 0.0000 1752.3143 -7387.9178 299.9336 -9140.2321 -7390.6922 300.8782 -162.5902 -42.1832 30420.9174 8.1983 80.2708
ENERGY: 1200000 2.7132 11.5788 3.0885 0.0000 -10652.1437 1449.3578 0.0000 0.0000 1812.4988 -7372.9066 310.2350 -9185.4054 -7379.7753 302.1818 84.3443 139.6078 30103.9804 15.1345 88.4196
ENERGY: 1500000 3.3231 9.1442 3.2610 0.0000 -10723.0621 1528.7724 0.0000 0.0000 1713.2474 -7465.3140 293.2467 -9178.5614 -7387.3078 301.8592 939.2208 1020.3738 29974.1855 129.3672 199.9251
TCL: Running FEP window  13: Lambda1 0.39999999999999963 Lambda2 0.34999999999999964 [dLambda -0.04999999999999999]
TCL: Setting parameter firsttimestep to 0
TCL: Setting parameter alchLambda to 0.39999999999999963
Info: NONBONDED TABLE R-SQUARED SPACING: 0.0625
Info: NONBONDED TABLE SIZE: 705 POINTS
TCL: Setting parameter alchLambda2 to 0.34999999999999964
Info: NONBONDED TABLE R-SQUARED SPACING: 0.0625
Info: NONBONDED TABLE SIZE: 705 POINTS
TCL: Running for 1500000 steps
ETITLE: TS BOND ANGLE DIHED IMPRP ELECT VDW BOUNDARY MISC KINETIC TOTAL TEMP POTENTIAL TOTALAVG TEMPAVG PRESSURE GPRESSURE VOLUME PRESSAVG GPRESSAVG
ENERGY: 0 3.3231 9.1442 3.2610 0.0000 -10723.0610 1528.6375 0.0000 0.0000 1712.3776 -7466.3175 293.0978 -9178.6951 -7466.3175 293.0978 915.9792 1012.0885 29974.1855 915.9792 1012.0885
ENERGY: 300000 4.6550 10.7824 5.2340 0.0000 -10684.4179 1372.0729 0.0000 0.0000 1760.6205 -7531.0530 301.3553 -9291.6735 -7454.0069 298.9946 -823.2649 -770.8997 30261.1302 -22.9225 39.2743
ENERGY: 600000 1.1653 8.0774 5.5169 0.0000 -10684.4196 1425.0184 0.0000 0.0000 1751.7721 -7492.8694 299.8408 -9244.6416 -7449.4116 298.7105 -186.1486 -50.9013 30020.2837 -139.7269 -65.3527
ENERGY: 900000 2.3653 7.3766 2.8794 0.0000 -10535.5260 1391.7092 0.0000 0.0000 1786.6673 -7344.5282 305.8136 -9131.1955 -7417.8972 299.2182 7.7842 37.1159 29902.1714 -173.5023 -104.4612
ENERGY: 1200000 3.3703 9.8935 3.5423 0.0000 -10693.2683 1498.6671 0.0000 0.0000 1757.0025 -7420.7927 300.7360 -9177.7952 -7413.8484 299.8661 425.7695 540.4761 29910.6686 -44.6046 25.0615
ENERGY: 1500000 5.5724 11.4761 3.6210 0.0000 -10518.5062 1378.1369 0.0000 0.0000 1758.7799 -7360.9199 301.0402 -9119.6997 -7401.8158 300.7040 -463.6307 -404.8659 30181.2773 -112.3366 -43.8515
TCL: Running FEP window  14: Lambda1 0.34999999999999964 Lambda2 0.29999999999999966 [dLambda -0.04999999999999999]
TCL: Setting parameter firsttimestep to 0
TCL: Setting parameter alchLambda to 0.34999999999999964
Info: NONBONDED TABLE R-SQUARED SPACING: 0.0625
Info: NONBONDED TABLE SIZE: 705 POINTS
TCL: Setting parameter alchLambda2 to 0.29999999999999966
Info: NONBONDED TABLE R-SQUARED SPACING: 0.0625
Info: NONBONDED TABLE SIZE: 705 POINTS
TCL: Running for 1500000 steps
ETITLE: TS BOND ANGLE DIHED IMPRP ELECT VDW BOUNDARY MISC KINETIC TOTAL TEMP POTENTIAL TOTALAVG TEMPAVG PRESSURE GPRESSURE VOLUME PRESSAVG GPRESSAVG
ENERGY: 0 5.5725 11.4761 3.6210 0.0000 -10518.5063 1378.3394 0.0000 0.0000 1757.9110 -7361.5863 300.8915 -9119.4973 -7361.5863 300.8915 -498.3559 -412.6310 30181.2773 -498.3559 -412.6310
ENERGY: 300000 4.4879 12.5775 3.9746 0.0000 -10696.1995 1479.0789 0.0000 0.0000 1786.1222 -7409.9583 305.7203 -9196.0805 -7427.3886 300.7211 481.7106 515.2424 29686.7098 -403.9307 -340.4412
ENERGY: 600000 1.6525 11.8596 2.8245 0.0000 -10574.4942 1409.6882 0.0000 0.0000 1745.5144 -7402.9551 298.7697 -9148.4694 -7412.1238 300.2074 -49.1646 -50.9288 29866.1429 -24.6054 26.3204
ENERGY: 900000 1.2460 7.7900 4.9055 0.0000 -10721.4101 1469.9708 0.0000 0.0000 1731.0500 -7506.4478 296.2939 -9237.4978 -7417.3308 300.5313 -101.2393 -69.5395 30361.5640 -46.3182 13.3455
ENERGY: 1200000 3.1677 6.2705 5.2918 0.0000 -10543.7003 1394.4194 0.0000 0.0000 1739.3026 -7395.2484 297.7064 -9134.5509 -7407.5884 300.1394 -357.1034 -259.0783 29911.4051 -112.5515 -58.7882
ENERGY: 1500000 2.7062 11.2283 4.6462 0.0000 -10529.5644 1387.3489 0.0000 0.0000 1712.2923 -7411.3425 293.0832 -9123.6348 -7408.0962 300.0716 -389.3838 -347.0527 30114.1400 -133.3845 -80.2946
TCL: Running FEP window  15: Lambda1 0.29999999999999966 Lambda2 0.24999999999999967 [dLambda -0.04999999999999999]
TCL: Setting parameter firsttimestep to 0
TCL: Setting parameter alchLambda to 0.29999999999999966
Info: NONBONDED TABLE R-SQUARED SPACING: 0.0625
Info: NONBONDED TABLE SIZE: 705 POINTS
TCL: Setting parameter alchLambda2 to 0.24999999999999967
Info: NONBONDED TABLE R-SQUARED SPACING: 0.0625
Info: NONBONDED TABLE SIZE: 705 POINTS
TCL: Running for 1500000 steps
ETITLE: TS BOND ANGLE DIHED IMPRP ELECT VDW BOUNDARY MISC KINETIC TOTAL TEMP POTENTIAL TOTALAVG TEMPAVG PRESSURE GPRESSURE VOLUME PRESSAVG GPRESSAVG
ENERGY: 0 2.7062 11.2283 4.6462 0.0000 -10529.5652 1386.5403 0.0000 0.0000 1711.4355 -7413.0087 292.9366 -9124.4443 -7413.0087 292.9366 -444.3937 -358.6108 30114.1400 -444.3937 -358.6108
ENERGY: 300000 2.2530 9.8284 3.3909 0.0000 -10605.3715 1449.0147 0.0000 0.0000 1773.2474 -7367.6371 303.5166 -9140.8845 -7412.2393 298.5669 83.7164 170.5146 30169.3028 -110.9343 -32.7604
ENERGY: 600000 2.3727 11.7927 2.9436 0.0000 -10589.3035 1428.3530 0.0000 0.0000 1749.3741 -7394.4672 299.4303 -9143.8414 -7390.8291 300.9277 57.7785 81.7126 30314.9088 -151.2914 -92.5950
ENERGY: 900000 1.4142 13.3601 3.9445 0.0000 -10673.8160 1477.9264 0.0000 0.0000 1724.4647 -7452.7062 295.1667 -9177.1709 -7390.8135 300.9046 56.0441 74.9518 30439.7985 -203.0868 -149.3449
ENERGY: 1200000 3.5634 11.7355 5.0786 0.0000 -10668.4142 1438.8774 0.0000 0.0000 1749.5754 -7459.5838 299.4648 -9209.1592 -7399.9534 300.7650 -108.5802 -26.6198 30126.1391 -130.6666 -66.2142
ENERGY: 1500000 3.4378 9.3039 4.4590 0.0000 -10646.9231 1517.3413 0.0000 0.0000 1755.2585 -7357.1225 300.4375 -9112.3811 -7397.4646 301.5423 681.0516 736.3043 30268.0004 -18.9417 41.1181
TCL: Running FEP window  16: Lambda1 0.24999999999999967 Lambda2 0.19999999999999968 [dLambda -0.04999999999999999]
TCL: Setting parameter firsttimestep to 0
TCL: Setting parameter alchLambda to 0.24999999999999967
Info: NONBONDED TABLE R-SQUARED SPACING: 0.0625
Info: NONBONDED TABLE SIZE: 705 POINTS
TCL: Setting parameter alchLambda2 to 0.19999999999999968
Info: NONBONDED TABLE R-SQUARED SPACING: 0.0625
Info: NONBONDED TABLE SIZE: 705 POINTS
TCL: Running for 1500000 steps
ETITLE: TS BOND ANGLE DIHED IMPRP ELECT VDW BOUNDARY MISC KINETIC TOTAL TEMP POTENTIAL TOTALAVG TEMPAVG PRESSURE GPRESSURE VOLUME PRESSAVG GPRESSAVG
ENERGY: 0 3.4378 9.3039 4.4590 0.0000 -10646.9258 1516.7069 0.0000 0.0000 1754.3640 -7358.6541 300.2844 -9113.0181 -7358.6541 300.2844 637.1977 726.8001 30268.0004 637.1977 726.8001
ENERGY: 300000 2.1483 7.3467 2.8028 0.0000 -10491.8699 1397.7396 0.0000 0.0000 1831.9879 -7249.8445 313.5708 -9081.8324 -7400.4286 299.3942 70.0664 59.9775 30177.5279 409.9670 457.5739
ENERGY: 600000 1.1931 10.4524 4.5928 0.0000 -10709.5138 1489.2395 0.0000 0.0000 1757.2672 -7446.7687 300.7813 -9204.0359 -7413.0651 300.3226 190.4260 265.8009 30363.6599 77.6404 135.7498
ENERGY: 900000 1.3866 15.8670 3.6795 0.0000 -10657.4728 1445.7091 0.0000 0.0000 1792.8823 -7397.9483 306.8773 -9190.8306 -7401.0990 301.5828 101.4408 165.8260 30044.3458 -79.7092 -27.1933
ENERGY: 1200000 2.8491 13.9725 5.4662 0.0000 -10610.5168 1464.8678 0.0000 0.0000 1766.1418 -7357.2193 302.3003 -9123.3611 -7387.3083 301.9603 118.0173 233.3727 30430.8593 -22.0711 34.5856
ENERGY: 1500000 2.8739 8.1223 5.0926 0.0000 -10625.2333 1449.3616 0.0000 0.0000 1749.7532 -7410.0298 299.4952 -9159.7830 -7386.0294 301.3531 147.8354 239.9559 30025.8299 -66.6392 -6.6654
TCL: Running FEP window  17: Lambda1 0.19999999999999968 Lambda2 0.1499999999999997 [dLambda -0.04999999999999999]
TCL: Setting parameter firsttimestep to 0
TCL: Setting parameter alchLambda to 0.19999999999999968
Info: NONBONDED TABLE R-SQUARED SPACING: 0.0625
Info: NONBONDED TABLE SIZE: 705 POINTS
TCL: Setting parameter alchLambda2 to 0.1499999999999997
Info: NONBONDED TABLE R-SQUARED SPACING: 0.0625
Info: NONBONDED TABLE SIZE: 705 POINTS
TCL: Running for 1500000 steps
ETITLE: TS BOND ANGLE DIHED IMPRP ELECT VDW BOUNDARY MISC KINETIC TOTAL TEMP POTENTIAL TOTALAVG TEMPAVG PRESSURE GPRESSURE VOLUME PRESSAVG GPRESSAVG
ENERGY: 0 2.8739 8.1223 5.0926 0.0000 -10625.2333 1449.4850 0.0000 0.0000 1748.8583 -7410.8012 299.3420 -9159.6595 -7410.8012 299.3420 153.2913 235.9397 30025.8299 153.2913 235.9397
ENERGY: 300000 1.9116 10.2449 3.4259 0.0000 -10536.8620 1369.7482 0.0000 0.0000 1733.3195 -7418.2119 296.6823 -9151.5314 -7406.0327 298.7895 -655.3136 -585.9563 30620.8883 -222.4895 -149.6839
ENERGY: 600000 1.2262 10.2316 5.7003 0.0000 -10551.4615 1470.7078 0.0000 0.0000 1775.7248 -7287.8707 303.9406 -9063.5955 -7396.3842 298.7498 595.9772 664.6384 30140.4317 -123.9143 -68.0628
ENERGY: 900000 3.9137 11.4016 4.8541 0.0000 -10627.0023 1456.5643 0.0000 0.0000 1755.4308 -7394.8378 300.4670 -9150.2686 -7392.3295 299.0292 398.2691 461.0397 29831.6703 -39.9708 8.7866
ENERGY: 1200000 2.7720 14.0086 5.8495 0.0000 -10642.3501 1461.2509 0.0000 0.0000 1768.4297 -7390.0394 302.6919 -9158.4692 -7388.3040 300.1821 96.4374 148.9705 30212.3964 -6.6254 41.5113
ENERGY: 1500000 3.7631 9.8854 7.4617 0.0000 -10652.5126 1453.5566 0.0000 0.0000 1776.0907 -7401.7550 304.0032 -9177.8457 -7392.3746 300.2136 264.8894 272.0092 29814.8169 -26.3311 21.3242
TCL: Running FEP window  18: Lambda1 0.1499999999999997 Lambda2 0.09999999999999969 [dLambda -0.05 ]
TCL: Setting parameter firsttimestep to 0
TCL: Setting parameter alchLambda to 0.1499999999999997
Info: NONBONDED TABLE R-SQUARED SPACING: 0.0625
Info: NONBONDED TABLE SIZE: 705 POINTS
TCL: Setting parameter alchLambda2 to 0.09999999999999969
Info: NONBONDED TABLE R-SQUARED SPACING: 0.0625
Info: NONBONDED TABLE SIZE: 705 POINTS
TCL: Running for 1500000 steps
ETITLE: TS BOND ANGLE DIHED IMPRP ELECT VDW BOUNDARY MISC KINETIC TOTAL TEMP POTENTIAL TOTALAVG TEMPAVG PRESSURE GPRESSURE VOLUME PRESSAVG GPRESSAVG
ENERGY: 0 3.7632 9.8855 7.4617 0.0000 -10652.5126 1453.0606 0.0000 0.0000 1775.2539 -7403.0878 303.8600 -9178.3417 -7403.0878 303.8600 182.1837 266.1530 29814.8169 182.1837 266.1530
ENERGY: 300000 5.1224 14.1883 3.2853 0.0000 -10605.9895 1399.7781 0.0000 0.0000 1688.4744 -7495.1410 289.0065 -9183.6154 -7457.7696 293.8405 -436.0079 -396.8626 30105.2145 -174.9145 -132.0892
ENERGY: 600000 1.6643 8.4606 4.8890 0.0000 -10724.7578 1462.2631 0.0000 0.0000 1748.1164 -7499.3644 299.2150 -9247.4808 -7467.8578 296.1240 87.4324 168.1653 29672.1374 -233.0288 -167.2958
ENERGY: 900000 4.0156 9.0120 3.4800 0.0000 -10527.1840 1375.9095 0.0000 0.0000 1744.3165 -7390.4503 298.5646 -9134.7668 -7456.8005 296.0601 -531.7399 -420.9450 30436.5329 -205.1228 -127.6228
ENERGY: 1200000 2.5334 9.6235 3.6593 0.0000 -10557.2093 1372.2906 0.0000 0.0000 1794.3624 -7374.7401 307.1307 -9169.1026 -7449.5601 297.5869 -526.8043 -444.0601 29953.3270 -107.2846 -31.9888
ENERGY: 1500000 0.8190 9.8893 4.1513 0.0000 -10537.5236 1465.4242 0.0000 0.0000 1718.3223 -7338.9174 294.1153 -9057.2397 -7428.9820 297.7356 588.2894 752.6129 29881.0508 -83.8579 -6.8900
TCL: Running FEP window  19: Lambda1 0.09999999999999969 Lambda2 0.049999999999999684 [dLambda -0.05 ]
TCL: Setting parameter firsttimestep to 0
TCL: Setting parameter alchLambda to 0.09999999999999969
Info: NONBONDED TABLE R-SQUARED SPACING: 0.0625
Info: NONBONDED TABLE SIZE: 705 POINTS
TCL: Setting parameter alchLambda2 to 0.049999999999999684
Info: NONBONDED TABLE R-SQUARED SPACING: 0.0625
Info: NONBONDED TABLE SIZE: 705 POINTS
TCL: Running for 1500000 steps
ETITLE: TS BOND ANGLE DIHED IMPRP ELECT VDW BOUNDARY MISC KINETIC TOTAL TEMP POTENTIAL TOTALAVG TEMPAVG PRESSURE GPRESSURE VOLUME PRESSAVG GPRESSAVG
ENERGY: 0 0.8190 9.8893 4.1513 0.0000 -10537.5236 1465.6155 0.0000 0.0000 1717.4463 -7339.6022 293.9654 -9057.0484 -7339.6022 293.9654 648.4288 749.8203 29881.0508 648.4288 749.8203
ENERGY: 300000 2.6832 11.4147 5.7470 0.0000 -10668.0602 1397.6361 0.0000 0.0000 1727.9547 -7522.6245 295.7641 -9250.5792 -7419.1517 299.8113 -302.3200 -296.1196 29614.4257 0.3878 67.3749
ENERGY: 600000 1.1217 15.4129 4.6196 0.0000 -10640.4878 1416.1089 0.0000 0.0000 1765.5758 -7437.6489 302.2035 -9203.2247 -7433.8667 298.5965 -43.7092 -20.8820 29832.1837 -92.7178 -18.3303
ENERGY: 900000 1.7217 12.5425 4.1006 0.0000 -10513.2930 1368.3529 0.0000 0.0000 1790.6272 -7335.9482 306.4914 -9126.5755 -7418.7098 300.3037 -818.1361 -720.2513 30617.9685 -249.2608 -174.4311
ENERGY: 1200000 3.3555 9.4058 3.7176 0.0000 -10737.0275 1478.5505 0.0000 0.0000 1762.8701 -7479.1280 301.7403 -9241.9981 -7420.5031 299.9799 109.4418 152.3461 29998.0572 -209.6372 -134.3363
ENERGY: 1500000 2.1431 17.3881 4.6168 0.0000 -10496.9754 1349.8403 0.0000 0.0000 1792.4344 -7330.5527 306.8007 -9122.9871 -7414.5828 300.8264 -734.6252 -667.3833 30269.8201 -217.8550 -140.0628
TCL: Running FEP window  20: Lambda1 0.049999999999999684 Lambda2 0.0    [dLambda -0.049999999999999684]
TCL: Setting parameter firsttimestep to 0
TCL: Setting parameter alchLambda to 0.049999999999999684
Info: NONBONDED TABLE R-SQUARED SPACING: 0.0625
Info: NONBONDED TABLE SIZE: 705 POINTS
TCL: Setting parameter alchLambda2 to 0.0
Info: NONBONDED TABLE R-SQUARED SPACING: 0.0625
Info: NONBONDED TABLE SIZE: 705 POINTS
TCL: Running for 1500000 steps
ETITLE: TS BOND ANGLE DIHED IMPRP ELECT VDW BOUNDARY MISC KINETIC TOTAL TEMP POTENTIAL TOTALAVG TEMPAVG PRESSURE GPRESSURE VOLUME PRESSAVG GPRESSAVG
ENERGY: 0 2.1431 17.3881 4.6168 0.0000 -10496.9768 1348.8755 0.0000 0.0000 1791.5594 -7332.3939 306.6509 -9123.9532 -7332.3939 306.6509 -754.4449 -674.2510 30269.8201 -754.4449 -674.2510
ENERGY: 300000 1.4974 16.9098 4.1204 0.0000 -10711.2516 1501.1219 0.0000 0.0000 1710.3555 -7477.2467 292.7517 -9187.6021 -7402.9887 297.8334 522.7733 484.8254 29857.6281 -285.6416 -269.3653
ENERGY: 600000 2.0269 7.3370 3.2158 0.0000 -10555.6663 1426.0200 0.0000 0.0000 1740.6301 -7376.4365 297.9336 -9117.0666 -7395.6078 298.4898 -18.7731 106.3936 29985.8222 -251.5470 -212.5461
ENERGY: 900000 0.5713 8.8553 4.0206 0.0000 -10535.6967 1406.7507 0.0000 0.0000 1699.5026 -7415.9962 290.8941 -9115.4988 -7400.0758 298.1143 25.4352 75.6931 30064.4807 -196.3604 -156.4581
ENERGY: 1200000 4.2373 10.5841 5.4034 0.0000 -10560.4726 1347.6453 0.0000 0.0000 1753.8699 -7438.7326 300.1998 -9192.6025 -7398.4588 299.2265 -905.0050 -890.9289 30033.0374 -255.7223 -225.0370
ENERGY: 1500000 2.1405 8.0653 4.9684 0.0000 -10530.1181 1396.0864 0.0000 0.0000 1697.9293 -7420.9282 290.6248 -9118.8575 -7404.7040 298.2403 -55.2279 22.2790 29860.6017 -292.3934 -259.9901
TCL: Exiting due to exit command.
