Info: SIMULATION PARAMETERS:
Info: TIMESTEP               2
Info: NUMBER OF STEPS        0
Info: STEPS PER CYCLE        10
Info: PERIODIC CELL BASIS 1  30.8183 0 0
Info: PERIODIC CELL BASIS 2  0 29.4204 0
Info: PERIODIC CELL BASIS 3  0 0 32.7642
Info: PERIODIC CELL CENTER   0 0 0
Info: WRAPPING WATERS AROUND PERIODIC BOUNDARIES ON OUTPUT.
Info: WRAPPING ALL CLUSTERS AROUND PERIODIC BOUNDARIES ON OUTPUT.
Info: FIRST LDB TIMESTEP     50
Info: LAST LDB TIMESTEP     -1
Info: HOM BACKGROUND SCALING 1
Info: PME BACKGROUND SCALING 1
Info: MIN ATOMS PER PATCH    40
Info: EMPTY PATCH LOAD       40 ATOMS
Info: VELOCITY FILE          mobley_5076071_equil.vel
Info: CENTER OF MASS MOVING INITIALLY? NO
Info: DIELECTRIC             1
Info: EXCLUDE                SCALED ONE-FOUR
Info: 1-4 ELECTROSTATICS SCALED BY 0.833333
Info: MODIFIED 1-4 VDW PARAMETERS WILL BE USED
Info: DCD FILENAME           mobley_5076071_prod.dcd
Info: DCD FREQUENCY          100000
Info: DCD FIRST STEP         100000
Info: DCD FILE WILL CONTAIN UNIT CELL DATA
Info: XST FILENAME           mobley_5076071_prod.xst
Info: XST FREQUENCY          100000
Info: NO VELOCITY DCD OUTPUT
Info: NO FORCE DCD OUTPUT
Info: OUTPUT FILENAME        mobley_5076071_prod
Info: BINARY OUTPUT FILES WILL BE USED
Info: RESTART FILENAME       mobley_5076071_prod.restart
Info: RESTART FREQUENCY      100000
Info: BINARY RESTART FILES WILL BE USED
Info: CUTOFF                 9
Info: PAIRLIST DISTANCE      11
Info: PAIRLIST SHRINK RATE   0.01
Info: PAIRLIST GROW RATE     0.01
Info: PAIRLIST TRIGGER       0.3
Info: PAIRLISTS PER CYCLE    2
Info: PAIRLISTS ENABLED
Info: MARGIN                 2
Info: HYDROGEN GROUP CUTOFF  2.5
Info: PATCH DIMENSION        15.5
Info: ENERGY OUTPUT STEPS    100000
Info: ENERGY EVALUATION STEPS    100000
Info: OUTPUT ENERGY PRECISION 4
Info: CROSSTERM ENERGY INCLUDED IN DIHEDRAL
Info: TIMING OUTPUT STEPS    1000000
Info: PRESSURE OUTPUT STEPS  100000
Info: ALCHEMICAL FEP ON
Info: FEP CURRENT LAMBDA VALUE     0
Info: FEP COMPARISON LAMBDA VALUE  0.05
Info: FEP INTRA-ALCHEMICAL NON-BONDED INTERACTIONS WILL BE RETAINED
Info: FEP INTRA-ALCHEMICAL BONDED INTERACTIONS WILL BE RETAINED
Info: FEP VDW SHIFTING COEFFICIENT 5
Info: FEP ELEC. ACTIVE FOR ANNIHILATED PARTICLES BETWEEN LAMBDA = 0 AND LAMBDA = 0.5
Info: FEP ELEC. ACTIVE FOR EXNIHILATED PARTICLES BETWEEN LAMBDA = 0.5 AND LAMBDA = 1
Info: FEP VDW ACTIVE FOR ANNIHILATED PARTICLES BETWEEN LAMBDA = 0 AND LAMBDA = 1
Info: FEP VDW ACTIVE FOR EXNIHILATED PARTICLES BETWEEN LAMBDA = 0 AND LAMBDA = 1
Info: FEP BOND ACTIVE FOR ANNIHILATED PARTICLES BETWEEN LAMBDA = 1 AND LAMBDA = 1
Info: FEP BOND ACTIVE FOR EXNIHILATED PARTICLES BETWEEN LAMBDA = 0 AND LAMBDA = 0
Info: LANGEVIN DYNAMICS ACTIVE
Info: LANGEVIN TEMPERATURE   300
Info: LANGEVIN USING BBK INTEGRATOR
Info: LANGEVIN DAMPING COEFFICIENT IS 1 INVERSE PS
Info: LANGEVIN DYNAMICS APPLIED TO HYDROGENS
Info: LANGEVIN PISTON PRESSURE CONTROL ACTIVE
Info:        TARGET PRESSURE IS 1.01325 BAR
Info:     OSCILLATION PERIOD IS 50 FS
Info:             DECAY TIME IS 25 FS
Info:     PISTON TEMPERATURE IS 300 K
Info:       PRESSURE CONTROL IS GROUP-BASED
Info:    INITIAL STRAIN RATE IS -0.000558532 -0.000558532 -0.000558532
Info:       CELL FLUCTUATION IS ISOTROPIC
Info: PARTICLE MESH EWALD (PME) ACTIVE
Info: PME TOLERANCE               1e-06
Info: PME EWALD COEFFICIENT       0.348832
Info: PME INTERPOLATION ORDER     4
Info: PME GRID DIMENSIONS         32 32 36
Info: PME MAXIMUM GRID SPACING    1
Info: PME CALCULATION WILL BE PERFORMED ON GPU
Info: FULL ELECTROSTATIC EVALUATION FREQUENCY      2
Info: USING VERLET I (r-RESPA) MTS SCHEME.
Info: C1 SPLITTING OF LONG RANGE ELECTROSTATICS
Info: PLACING ATOMS IN PATCHES BY HYDROGEN GROUPS
Info: RIGID BONDS TO HYDROGEN : ALL
Info:         ERROR TOLERANCE : 1e-08
Info:          MAX ITERATIONS : 100
Info: RIGID WATER USING SETTLE ALGORITHM
Info: RANDOM NUMBER SEED     1744046652
Info: USE HYDROGEN BONDS?    NO
Info: Using AMBER format force field!
Info: AMBER PARM FILE        mobley_5076071.prmtop
Info: COORDINATE PDB         mobley_5076071.pdb
Info: Exclusions will be read from PARM file!
Info: SCNB (VDW SCALING)     2
Info: USING ARITHMETIC MEAN TO COMBINE L-J SIGMA PARAMETERS
Info: BINARY COORDINATES     mobley_5076071_equil.coor
Info: SUMMARY OF PARAMETERS:
Info: 14 BONDS
Info: 19 ANGLES
Info:   19 HARMONIC
Info:   0 COSINE-BASED
Info: 6 DIHEDRAL
Info: 0 IMPROPER
Info: 0 CROSSTERM
Info: 0 VDW
Info: 66 VDW_PAIRS
Info: 0 NBTHOLE_PAIRS
Info: To read alchdata from file: mobley_5076071.pdb
Info: To read alchflag data from column: 5
Info: STRUCTURE SUMMARY:
Info: 2909 ATOMS
Info: 2909 BONDS
Info: 60 ANGLES
Info: 84 DIHEDRALS
Info: 0 IMPROPERS
Info: 0 CROSSTERMS
Info: 3042 EXCLUSIONS
Info: 2887 RIGID BONDS
Info: ALCH: 0 ATOMS TO DISAPPEAR IN FINAL STATE
Info: ALCH: 35 ATOMS TO APPEAR IN FINAL STATE
Info: 5840 DEGREES OF FREEDOM
Info: 980 HYDROGEN GROUPS
Info: 4 ATOMS IN LARGEST HYDROGEN GROUP
Info: 980 MIGRATION GROUPS
Info: 4 ATOMS IN LARGEST MIGRATION GROUP
Info: TOTAL MASS = 17581.6 amu
Info: TOTAL CHARGE = -0.000300046 e
Info: MASS DENSITY = 0.982791 g/cm^3
Info: ATOM DENSITY = 0.0979236 atoms/A^3
Info: ADDED 0 IMPLICIT EXCLUSIONS
Info: NONBONDED TABLE R-SQUARED SPACING: 0.0625
Info: NONBONDED TABLE SIZE: 705 POINTS
Info: REMOVING COM VELOCITY 0.0126909 0.0763218 -0.129932
Info: Use 3D box decompostion in PME FFT.
Info: Updated CUDA force table with 4096 elements.
Info: Updated CUDA LJ table with 11 x 11 elements.
Info: Found 36 unique exclusion lists needing 168 bytes
TCL: Running for 1500000 steps
ETITLE: TS BOND ANGLE DIHED IMPRP ELECT VDW BOUNDARY MISC KINETIC TOTAL TEMP POTENTIAL TOTALAVG TEMPAVG PRESSURE GPRESSURE VOLUME PRESSAVG GPRESSAVG
ENERGY: 0 6.5958 9.5563 23.4843 0.0000 -10532.1927 1412.4116 0.0000 0.0000 1841.5620 -7238.5826 317.3686 -9080.1446 -7238.5826 317.3686 332.0339 414.5523 29706.8181 332.0339 414.5523
ENERGY: 300000 5.3647 18.6118 21.6619 0.0000 -10552.4306 1456.8704 0.0000 0.0000 1729.0579 -7320.8639 297.9800 -9049.9218 -7334.5035 303.5711 809.0668 847.1848 29440.1254 -95.1376 -49.0101
ENERGY: 600000 8.5756 13.3197 22.2462 0.0000 -10611.2285 1397.4362 0.0000 0.0000 1752.4789 -7417.1719 302.0163 -9169.6508 -7358.5351 302.3322 -560.3340 -503.8917 30045.4125 -321.8078 -270.4623
ENERGY: 900000 11.3376 12.8450 18.2673 0.0000 -10703.6592 1483.7833 0.0000 0.0000 1708.7212 -7468.7049 294.4752 -9177.4261 -7366.2458 300.8339 492.1492 533.4142 29209.2977 -304.3866 -251.0386
ENERGY: 1200000 4.6611 15.2808 19.4279 0.0000 -10435.3569 1372.6424 0.0000 0.0000 1747.9142 -7275.4305 301.2296 -9023.3448 -7362.0451 300.8306 -229.8787 -151.6777 30191.4153 -365.4426 -308.8654
ENERGY: 1500000 8.0953 16.8653 20.6819 0.0000 -10520.1461 1336.8534 0.0000 0.0000 1704.3730 -7433.2772 293.7259 -9137.6503 -7367.4486 300.8656 -787.7992 -657.4985 29736.2039 -410.3218 -354.6197
TCL: Running FEP window   2: Lambda1 0.05   Lambda2 0.1    [dLambda 0.05  ]
TCL: Setting parameter firsttimestep to 0
TCL: Setting parameter alchLambda to 0.05
Info: NONBONDED TABLE R-SQUARED SPACING: 0.0625
Info: NONBONDED TABLE SIZE: 705 POINTS
TCL: Setting parameter alchLambda2 to 0.1
Info: NONBONDED TABLE R-SQUARED SPACING: 0.0625
Info: NONBONDED TABLE SIZE: 705 POINTS
TCL: Running for 1500000 steps
ETITLE: TS BOND ANGLE DIHED IMPRP ELECT VDW BOUNDARY MISC KINETIC TOTAL TEMP POTENTIAL TOTALAVG TEMPAVG PRESSURE GPRESSURE VOLUME PRESSAVG GPRESSAVG
ENERGY: 0 8.0953 16.8653 20.6819 0.0000 -10520.1481 1342.9385 0.0000 0.0000 1703.4989 -7428.0682 293.5752 -9131.5671 -7428.0682 293.5752 -725.6131 -642.8886 29736.2039 -725.6131 -642.8886
ENERGY: 300000 11.3986 14.9865 16.1975 0.0000 -10617.2999 1466.3746 0.0000 0.0000 1654.0944 -7454.2482 285.0610 -9108.3426 -7429.2484 294.8140 72.2463 170.4429 29940.9409 -152.4588 -47.1495
ENERGY: 600000 9.0475 10.1290 19.6631 0.0000 -10646.7240 1392.1324 0.0000 0.0000 1715.0173 -7500.7346 295.5603 -9215.7520 -7419.3057 297.0159 -370.0616 -398.0843 29586.8415 -195.1858 -123.4896
ENERGY: 900000 9.3180 16.8876 20.1142 0.0000 -10685.1362 1467.0939 0.0000 0.0000 1726.0098 -7445.7127 297.4547 -9171.7225 -7419.8173 297.6833 340.6785 441.6240 29863.0157 -220.3218 -136.4621
ENERGY: 1200000 8.5113 13.7140 22.1938 0.0000 -10566.3826 1362.1391 0.0000 0.0000 1735.6806 -7424.1438 299.1213 -9159.8244 -7413.6067 298.1183 -393.8785 -356.6049 29421.0874 -75.4517 2.8931
ENERGY: 1500000 7.7372 14.7492 20.6533 0.0000 -10584.9613 1451.0098 0.0000 0.0000 1724.9492 -7365.8626 297.2719 -9090.8118 -7413.3093 297.7159 479.5013 488.9687 29826.4296 -100.4690 -24.3528
TCL: Running FEP window   3: Lambda1 0.1    Lambda2 0.15000000000000002 [dLambda 0.05000000000000002]
TCL: Setting parameter firsttimestep to 0
TCL: Setting parameter alchLambda to 0.1
Info: NONBONDED TABLE R-SQUARED SPACING: 0.0625
Info: NONBONDED TABLE SIZE: 705 POINTS
TCL: Setting parameter alchLambda2 to 0.15000000000000002
Info: NONBONDED TABLE R-SQUARED SPACING: 0.0625
Info: NONBONDED TABLE SIZE: 705 POINTS
TCL: Running for 1500000 steps
ETITLE: TS BOND ANGLE DIHED IMPRP ELECT VDW BOUNDARY MISC KINETIC TOTAL TEMP POTENTIAL TOTALAVG TEMPAVG PRESSURE GPRESSURE VOLUME PRESSAVG GPRESSAVG
ENERGY: 0 7.7372 14.7492 20.6533 0.0000 -10584.9601 1456.4535 0.0000 0.0000 1724.0899 -7361.2770 297.1238 -9085.3669 -7361.2770 297.1238 448.2370 509.1172 29826.4296 448.2370 509.1172
ENERGY: 300000 8.0266 16.0360 22.4579 0.0000 -10537.5799 1441.0840 0.0000 0.0000 1746.2608 -7303.7146 300.9447 -9049.9753 -7364.8582 296.7984 102.1685 218.6313 29912.5283 119.5851 189.0530
ENERGY: 600000 7.5537 11.0422 20.0782 0.0000 -10531.2636 1406.2426 0.0000 0.0000 1708.2847 -7378.0623 294.4000 -9086.3470 -7383.4592 295.9385 -217.8152 -197.0492 29753.8802 76.5572 131.7538
ENERGY: 900000 4.0296 14.0157 22.6581 0.0000 -10529.2397 1382.7173 0.0000 0.0000 1755.4423 -7350.3766 302.5270 -9105.8189 -7383.5835 297.2138 -482.6837 -405.7000 30402.9455 13.9206 70.0345
ENERGY: 1200000 4.7153 16.5331 21.1002 0.0000 -10495.6340 1348.9240 0.0000 0.0000 1730.0960 -7374.2654 298.1589 -9104.3614 -7378.2654 297.9061 -380.1379 -320.8758 29553.3303 6.5051 65.9928
ENERGY: 1500000 6.4690 10.1298 19.4107 0.0000 -10600.8884 1463.3205 0.0000 0.0000 1698.6766 -7402.8820 292.7442 -9101.5585 -7371.6269 298.7559 151.4268 157.2727 29895.7214 16.3865 75.6566
TCL: Running FEP window   4: Lambda1 0.15000000000000002 Lambda2 0.2    [dLambda 0.04999999999999999]
TCL: Setting parameter firsttimestep to 0
TCL: Setting parameter alchLambda to 0.15000000000000002
Info: NONBONDED TABLE R-SQUARED SPACING: 0.0625
Info: NONBONDED TABLE SIZE: 705 POINTS
TCL: Setting parameter alchLambda2 to 0.2
Info: NONBONDED TABLE R-SQUARED SPACING: 0.0625
Info: NONBONDED TABLE SIZE: 705 POINTS
TCL: Running for 1500000 steps
ETITLE: TS BOND ANGLE DIHED IMPRP ELECT VDW BOUNDARY MISC KINETIC TOTAL TEMP POTENTIAL TOTALAVG TEMPAVG PRESSURE GPRESSURE VOLUME PRESSAVG GPRESSAVG
ENERGY: 0 6.4690 10.1298 19.4107 0.0000 -10600.8873 1464.0572 0.0000 0.0000 1697.8237 -7402.9970 292.5972 -9100.8207 -7402.9970 292.5972 86.1838 166.7352 29895.7214 86.1838 166.7352
ENERGY: 300000 4.6621 12.7546 19.4742 0.0000 -10612.6341 1388.0205 0.0000 0.0000 1769.7661 -7417.9565 304.9955 -9187.7227 -7369.0120 300.5583 -284.3977 -207.2326 29637.4687 -229.8957 -158.1343
ENERGY: 600000 3.3064 9.9973 19.9854 0.0000 -10532.1558 1440.5489 0.0000 0.0000 1700.5214 -7357.7964 293.0621 -9058.3178 -7367.8407 301.0637 458.0210 515.2274 29867.4440 79.2154 141.0149
ENERGY: 900000 7.8346 12.8761 23.4744 0.0000 -10555.5640 1390.8544 0.0000 0.0000 1710.8322 -7409.6923 294.8390 -9120.5245 -7368.1355 302.1859 -197.7998 -209.2881 29794.6354 76.5027 140.5273
ENERGY: 1200000 9.5932 18.0080 19.1305 0.0000 -10629.9482 1481.8115 0.0000 0.0000 1714.4233 -7386.9816 295.4579 -9101.4050 -7376.6731 301.2060 655.6205 791.1525 29563.3896 75.2911 144.0457
ENERGY: 1500000 7.6801 17.8371 23.4950 0.0000 -10562.0914 1402.1991 0.0000 0.0000 1727.5485 -7383.3316 297.7199 -9110.8801 -7376.3079 300.9193 -165.5439 -132.1862 29891.4216 39.5086 107.3122
TCL: Running FEP window   5: Lambda1 0.2    Lambda2 0.25   [dLambda 0.04999999999999999]
TCL: Setting parameter firsttimestep to 0
TCL: Setting parameter alchLambda to 0.2
Info: NONBONDED TABLE R-SQUARED SPACING: 0.0625
Info: NONBONDED TABLE SIZE: 705 POINTS
TCL: Setting parameter alchLambda2 to 0.25
Info: NONBONDED TABLE R-SQUARED SPACING: 0.0625
Info: NONBONDED TABLE SIZE: 705 POINTS
TCL: Running for 1500000 steps
ETITLE: TS BOND ANGLE DIHED IMPRP ELECT VDW BOUNDARY MISC KINETIC TOTAL TEMP POTENTIAL TOTALAVG TEMPAVG PRESSURE GPRESSURE VOLUME PRESSAVG GPRESSAVG
ENERGY: 0 7.6801 17.8371 23.4950 0.0000 -10562.0913 1404.5780 0.0000 0.0000 1726.6923 -7381.8087 297.5723 -9108.5010 -7381.8087 297.5723 -197.8314 -113.1867 29891.4216 -197.8314 -113.1867
ENERGY: 300000 8.8725 12.7647 23.3956 0.0000 -10629.0201 1432.5245 0.0000 0.0000 1720.2099 -7431.2529 296.4551 -9151.4629 -7385.7416 299.6815 -82.0058 -18.0679 29848.6666 -243.3616 -157.3679
ENERGY: 600000 6.7541 15.1154 20.7707 0.0000 -10570.4858 1402.6055 0.0000 0.0000 1795.9386 -7329.3015 309.5060 -9125.2401 -7381.2145 301.5830 -255.5493 -200.4740 29630.6395 -302.0107 -226.0300
ENERGY: 900000 5.6606 17.8703 19.4548 0.0000 -10639.9157 1427.5272 0.0000 0.0000 1744.9820 -7424.4209 300.7243 -9169.4028 -7386.4259 300.6280 116.0399 184.5117 29449.3277 -346.4386 -274.2052
ENERGY: 1200000 11.8292 12.5386 21.7468 0.0000 -10486.7613 1323.4673 0.0000 0.0000 1762.7544 -7354.4250 303.7871 -9117.1794 -7378.7710 300.2095 -670.5773 -617.9152 29940.4308 -339.5279 -274.3253
ENERGY: 1500000 9.4700 19.0162 25.1912 0.0000 -10644.0950 1449.3540 0.0000 0.0000 1712.9797 -7428.0839 295.2091 -9141.0637 -7389.3101 300.0337 357.3630 346.7928 29159.9570 -267.4384 -212.3976
TCL: Running FEP window   6: Lambda1 0.25   Lambda2 0.3    [dLambda 0.04999999999999999]
TCL: Setting parameter firsttimestep to 0
TCL: Setting parameter alchLambda to 0.25
Info: NONBONDED TABLE R-SQUARED SPACING: 0.0625
Info: NONBONDED TABLE SIZE: 705 POINTS
TCL: Setting parameter alchLambda2 to 0.3
Info: NONBONDED TABLE R-SQUARED SPACING: 0.0625
Info: NONBONDED TABLE SIZE: 705 POINTS
TCL: Running for 1500000 steps
ETITLE: TS BOND ANGLE DIHED IMPRP ELECT VDW BOUNDARY MISC KINETIC TOTAL TEMP POTENTIAL TOTALAVG TEMPAVG PRESSURE GPRESSURE VOLUME PRESSAVG GPRESSAVG
ENERGY: 0 9.4700 19.0162 25.1912 0.0000 -10644.0965 1450.2246 0.0000 0.0000 1712.1343 -7428.0602 295.0634 -9140.1945 -7428.0602 295.0634 295.9381 359.7387 29159.9570 295.9381 359.7387
ENERGY: 300000 4.5821 11.7959 22.2950 0.0000 -10524.0697 1349.1102 0.0000 0.0000 1770.6873 -7365.5992 305.1542 -9136.2865 -7375.2225 299.4731 -594.3503 -496.7100 30066.5099 -70.0866 -12.5256
ENERGY: 600000 9.3362 13.5615 20.5368 0.0000 -10689.7475 1451.5419 0.0000 0.0000 1726.2660 -7468.5052 297.4988 -9194.7711 -7384.3836 299.8924 186.2769 237.4822 29566.8551 89.8940 147.1947
ENERGY: 900000 6.0927 13.5408 20.4784 0.0000 -10617.0316 1419.6627 0.0000 0.0000 1724.5220 -7432.7350 297.1983 -9157.2570 -7405.5041 298.5188 -94.1949 -49.8148 30161.1692 60.5205 119.0155
ENERGY: 1200000 6.8278 14.6671 18.8166 0.0000 -10605.8119 1451.6865 0.0000 0.0000 1791.7793 -7322.0346 308.7892 -9113.8139 -7396.5216 299.7739 -54.8258 -33.8469 30272.9475 36.9546 92.7140
ENERGY: 1500000 4.8460 9.6447 20.6639 0.0000 -10622.1196 1439.8289 0.0000 0.0000 1780.4454 -7366.6907 306.8359 -9147.1361 -7397.2171 300.0705 111.1293 169.7041 29458.5240 66.8971 121.9082
TCL: Running FEP window   7: Lambda1 0.3    Lambda2 0.35   [dLambda 0.04999999999999999]
TCL: Setting parameter firsttimestep to 0
TCL: Setting parameter alchLambda to 0.3
Info: NONBONDED TABLE R-SQUARED SPACING: 0.0625
Info: NONBONDED TABLE SIZE: 705 POINTS
TCL: Setting parameter alchLambda2 to 0.35
Info: NONBONDED TABLE R-SQUARED SPACING: 0.0625
Info: NONBONDED TABLE SIZE: 705 POINTS
TCL: Running for 1500000 steps
ETITLE: TS BOND ANGLE DIHED IMPRP ELECT VDW BOUNDARY MISC KINETIC TOTAL TEMP POTENTIAL TOTALAVG TEMPAVG PRESSURE GPRESSURE VOLUME PRESSAVG GPRESSAVG
ENERGY: 0 4.8460 9.6447 20.6639 0.0000 -10622.1208 1439.6435 0.0000 0.0000 1779.6029 -7367.7198 306.6907 -9147.3227 -7367.7198 306.6907 99.6663 175.9112 29458.5240 99.6663 175.9112
ENERGY: 300000 8.3816 13.0162 18.1520 0.0000 -10667.8909 1502.7457 0.0000 0.0000 1746.4849 -7379.1104 300.9833 -9125.5953 -7379.1037 301.2861 660.1316 770.7043 29712.5410 77.0287 159.6906
ENERGY: 600000 7.8919 10.9878 16.1029 0.0000 -10506.9275 1378.5372 0.0000 0.0000 1769.7359 -7323.6718 304.9903 -9093.4077 -7399.2677 298.5776 -211.2687 -185.0048 29670.9789 48.3297 125.7948
ENERGY: 900000 7.5689 12.9891 16.9444 0.0000 -10596.2027 1387.7717 0.0000 0.0000 1708.8267 -7462.1018 294.4934 -9170.9286 -7411.7618 297.6416 -289.9944 -243.6457 29707.8337 186.5253 248.7509
ENERGY: 1200000 6.9880 12.8443 22.7035 0.0000 -10676.3423 1438.6393 0.0000 0.0000 1710.1490 -7485.0181 294.7213 -9195.1671 -7411.0826 298.2559 281.8109 380.2988 29416.8854 213.2751 275.1690
ENERGY: 1500000 8.1659 14.9125 22.5882 0.0000 -10467.9889 1360.3320 0.0000 0.0000 1732.5961 -7329.3943 298.5897 -9061.9904 -7404.6831 298.0390 -403.1890 -360.5459 29894.1919 180.4589 247.2269
TCL: Running FEP window   8: Lambda1 0.35   Lambda2 0.39999999999999997 [dLambda 0.04999999999999999]
TCL: Setting parameter firsttimestep to 0
TCL: Setting parameter alchLambda to 0.35
Info: NONBONDED TABLE R-SQUARED SPACING: 0.0625
Info: NONBONDED TABLE SIZE: 705 POINTS
TCL: Setting parameter alchLambda2 to 0.39999999999999997
Info: NONBONDED TABLE R-SQUARED SPACING: 0.0625
Info: NONBONDED TABLE SIZE: 705 POINTS
TCL: Running for 1500000 steps
ETITLE: TS BOND ANGLE DIHED IMPRP ELECT VDW BOUNDARY MISC KINETIC TOTAL TEMP POTENTIAL TOTALAVG TEMPAVG PRESSURE GPRESSURE VOLUME PRESSAVG GPRESSAVG
ENERGY: 0 8.1659 14.9125 22.5882 0.0000 -10467.9883 1360.3147 0.0000 0.0000 1731.7008 -7330.3062 298.4354 -9062.0070 -7330.3062 298.4354 -439.9434 -350.0013 29894.1919 -439.9434 -350.0013
ENERGY: 300000 5.4450 17.9709 22.0430 0.0000 -10468.9169 1310.4508 0.0000 0.0000 1825.1908 -7287.8163 314.5472 -9113.0071 -7349.9730 303.0468 -753.7519 -674.7599 29902.7439 -533.2443 -467.3692
ENERGY: 600000 6.2220 12.5302 21.2995 0.0000 -10510.3380 1394.8812 0.0000 0.0000 1718.4571 -7356.9480 296.1531 -9075.4051 -7364.4111 300.8859 -113.4850 -73.1769 30281.4941 -371.1605 -318.2232
ENERGY: 900000 5.5597 17.3513 21.3924 0.0000 -10462.9147 1307.8174 0.0000 0.0000 1747.0045 -7363.7895 301.0728 -9110.7940 -7361.5504 301.3903 -1159.8437 -1093.9275 30468.9809 -491.6770 -440.0077
ENERGY: 1200000 10.0836 16.6961 21.6004 0.0000 -10527.6223 1403.2131 0.0000 0.0000 1769.0249 -7307.0043 304.8677 -9076.0292 -7357.1259 301.6723 -109.0774 -104.2664 30135.5736 -435.3395 -384.8012
ENERGY: 1500000 5.3884 12.5464 19.8684 0.0000 -10555.5549 1372.4992 0.0000 0.0000 1729.3366 -7415.9159 298.0280 -9145.2525 -7359.0213 301.3995 -267.9935 -226.7877 30037.1136 -414.6369 -363.1687
TCL: Running FEP window   9: Lambda1 0.39999999999999997 Lambda2 0.44999999999999996 [dLambda 0.04999999999999999]
TCL: Setting parameter firsttimestep to 0
TCL: Setting parameter alchLambda to 0.39999999999999997
Info: NONBONDED TABLE R-SQUARED SPACING: 0.0625
Info: NONBONDED TABLE SIZE: 705 POINTS
TCL: Setting parameter alchLambda2 to 0.44999999999999996
Info: NONBONDED TABLE R-SQUARED SPACING: 0.0625
Info: NONBONDED TABLE SIZE: 705 POINTS
TCL: Running for 1500000 steps
ETITLE: TS BOND ANGLE DIHED IMPRP ELECT VDW BOUNDARY MISC KINETIC TOTAL TEMP POTENTIAL TOTALAVG TEMPAVG PRESSURE GPRESSURE VOLUME PRESSAVG GPRESSAVG
ENERGY: 0 5.3884 12.5464 19.8685 0.0000 -10555.5526 1372.0840 0.0000 0.0000 1728.4881 -7417.1772 297.8818 -9145.6653 -7417.1772 297.8818 -305.6847 -221.4503 30037.1136 -305.6847 -221.4503
ENERGY: 300000 8.3303 13.2395 21.4197 0.0000 -10519.7963 1341.4427 0.0000 0.0000 1700.6341 -7434.7300 293.0815 -9135.3641 -7398.8041 298.6991 -691.1412 -589.2193 30028.7037 -262.1555 -202.0044
ENERGY: 600000 5.0507 12.0996 19.7662 0.0000 -10650.5581 1533.8321 0.0000 0.0000 1720.2950 -7359.5145 296.4698 -9079.8095 -7401.0451 297.0823 1154.4125 1225.3087 29670.1468 -103.7407 -47.2529
ENERGY: 900000 5.5049 15.1316 20.9076 0.0000 -10710.9890 1516.9008 0.0000 0.0000 1720.7776 -7431.7666 296.5530 -9152.5442 -7397.7239 297.7535 690.5494 787.1407 29949.3290 23.9857 79.3169
ENERGY: 1200000 12.3140 15.1934 17.4380 0.0000 -10607.1582 1486.0655 0.0000 0.0000 1703.9027 -7372.2446 293.6448 -9076.1473 -7397.2275 297.7197 727.6763 737.8029 29725.2330 92.9768 150.1381
ENERGY: 1500000 4.3629 15.0313 22.9412 0.0000 -10571.6920 1352.2911 0.0000 0.0000 1729.2603 -7447.8052 298.0148 -9177.0655 -7395.1579 298.1010 -735.3152 -682.8304 30101.9191 -51.8746 6.6788
TCL: Running FEP window  10: Lambda1 0.44999999999999996 Lambda2 0.49999999999999994 [dLambda 0.04999999999999999]
TCL: Setting parameter firsttimestep to 0
TCL: Setting parameter alchLambda to 0.44999999999999996
Info: NONBONDED TABLE R-SQUARED SPACING: 0.0625
Info: NONBONDED TABLE SIZE: 705 POINTS
TCL: Setting parameter alchLambda2 to 0.49999999999999994
Info: NONBONDED TABLE R-SQUARED SPACING: 0.0625
Info: NONBONDED TABLE SIZE: 705 POINTS
TCL: Running for 1500000 steps
ETITLE: TS BOND ANGLE DIHED IMPRP ELECT VDW BOUNDARY MISC KINETIC TOTAL TEMP POTENTIAL TOTALAVG TEMPAVG PRESSURE GPRESSURE VOLUME PRESSAVG GPRESSAVG
ENERGY: 0 4.3630 15.0312 22.9412 0.0000 -10571.6877 1351.2508 0.0000 0.0000 1728.4027 -7449.6988 297.8671 -9178.1015 -7449.6988 297.8671 -772.2348 -681.5740 30101.9191 -772.2348 -681.5740
ENERGY: 300000 10.3351 17.0985 20.5949 0.0000 -10682.2218 1431.5869 0.0000 0.0000 1718.5336 -7484.0729 296.1662 -9202.6064 -7415.9429 300.9065 -299.4975 -159.6067 29954.2691 108.0151 212.0573
ENERGY: 600000 9.1581 21.3898 19.2153 0.0000 -10528.1884 1338.0038 0.0000 0.0000 1755.0914 -7385.3299 302.4665 -9140.4214 -7398.7041 302.7187 -309.5984 -273.2613 29623.6845 -112.5414 -31.9123
ENERGY: 900000 10.3420 17.1957 21.9002 0.0000 -10546.5038 1351.5323 0.0000 0.0000 1710.0914 -7435.4422 294.7113 -9145.5335 -7380.9540 302.8471 -822.4738 -739.6995 30104.9795 -210.5772 -137.3313
ENERGY: 1200000 7.0934 10.7463 19.8604 0.0000 -10543.2278 1319.7850 0.0000 0.0000 1704.1886 -7481.5540 293.6941 -9185.7426 -7386.4774 302.0350 -901.3290 -844.2982 29599.8305 -168.6463 -93.1708
ENERGY: 1500000 7.2866 12.1241 19.5671 0.0000 -10571.5886 1369.5421 0.0000 0.0000 1737.2569 -7425.8117 299.3930 -9163.0686 -7390.7788 301.4341 -529.9200 -483.3460 30009.5334 -200.0129 -125.2180
TCL: Running FEP window  11: Lambda1 0.49999999999999994 Lambda2 0.5499999999999999 [dLambda 0.04999999999999999]
TCL: Setting parameter firsttimestep to 0
TCL: Setting parameter alchLambda to 0.49999999999999994
Info: NONBONDED TABLE R-SQUARED SPACING: 0.0625
Info: NONBONDED TABLE SIZE: 705 POINTS
TCL: Setting parameter alchLambda2 to 0.5499999999999999
Info: NONBONDED TABLE R-SQUARED SPACING: 0.0625
Info: NONBONDED TABLE SIZE: 705 POINTS
TCL: Running for 1500000 steps
ETITLE: TS BOND ANGLE DIHED IMPRP ELECT VDW BOUNDARY MISC KINETIC TOTAL TEMP POTENTIAL TOTALAVG TEMPAVG PRESSURE GPRESSURE VOLUME PRESSAVG GPRESSAVG
ENERGY: 0 7.2866 12.1241 19.5671 0.0000 -10571.5883 1369.1156 0.0000 0.0000 1736.3860 -7427.1089 299.2429 -9163.4949 -7427.1089 299.2429 -540.9851 -472.2048 30009.5334 -540.9851 -472.2048
ENERGY: 300000 6.5677 21.6587 19.1925 0.0000 -10502.5510 1380.2268 0.0000 0.0000 1725.7839 -7349.1215 297.4157 -9074.9054 -7383.5507 301.7700 262.6559 268.0283 29736.4409 -16.0985 41.4535
ENERGY: 600000 13.4904 16.2537 22.4414 0.0000 -10419.0755 1331.0910 0.0000 0.0000 1706.6940 -7329.1050 294.1259 -9035.7990 -7379.5053 300.3049 -821.3667 -819.6082 30419.1391 -36.2408 19.5383
ENERGY: 900000 5.6854 15.5150 25.2022 0.0000 -10538.9457 1372.3977 0.0000 0.0000 1747.5099 -7372.6356 301.1599 -9120.1454 -7379.7934 300.4175 -339.3910 -261.6255 29938.7742 -87.5334 -25.0438
ENERGY: 1200000 8.6637 7.9888 20.5305 0.0000 -10643.0146 1448.9447 0.0000 0.0000 1760.6514 -7396.2356 303.4247 -9156.8869 -7380.4679 300.3887 -9.8616 99.7380 29939.2869 -135.4188 -59.1683
ENERGY: 1500000 5.9968 13.6623 19.2924 0.0000 -10711.6315 1468.4938 0.0000 0.0000 1758.6435 -7445.5427 303.0787 -9204.1861 -7378.0720 301.3422 659.5417 742.8349 29455.8454 -5.7555 69.2943
TCL: Running FEP window  12: Lambda1 0.5499999999999999 Lambda2 0.6    [dLambda 0.050000000000000044]
TCL: Setting parameter firsttimestep to 0
TCL: Setting parameter alchLambda to 0.5499999999999999
Info: NONBONDED TABLE R-SQUARED SPACING: 0.0625
Info: NONBONDED TABLE SIZE: 705 POINTS
TCL: Setting parameter alchLambda2 to 0.6
Info: NONBONDED TABLE R-SQUARED SPACING: 0.0625
Info: NONBONDED TABLE SIZE: 705 POINTS
TCL: Running for 1500000 steps
ETITLE: TS BOND ANGLE DIHED IMPRP ELECT VDW BOUNDARY MISC KINETIC TOTAL TEMP POTENTIAL TOTALAVG TEMPAVG PRESSURE GPRESSURE VOLUME PRESSAVG GPRESSAVG
ENERGY: 0 5.9969 13.6623 19.2924 0.0000 -10712.2650 1467.5790 0.0000 0.0000 1757.7894 -7447.9451 302.9315 -9205.7345 -7447.9451 302.9315 672.2551 748.3417 29455.8454 672.2551 748.3417
ENERGY: 300000 8.8611 9.3212 24.0231 0.0000 -10642.5969 1432.6545 0.0000 0.0000 1724.8619 -7442.8751 297.2568 -9167.7370 -7434.3845 298.8149 57.3293 112.4111 29744.0290 140.6829 190.9176
ENERGY: 600000 3.9540 13.6737 19.5653 0.0000 -10520.7303 1370.5087 0.0000 0.0000 1660.8482 -7452.1804 286.2249 -9113.0286 -7419.3253 298.8039 -34.5066 -16.9330 29511.9703 305.3480 345.6205
ENERGY: 900000 10.4883 16.8939 22.3049 0.0000 -10500.0163 1370.4814 0.0000 0.0000 1750.3596 -7329.4882 301.6510 -9079.8478 -7409.1130 299.3588 -147.8145 -161.5692 29803.9864 148.6600 198.1284
ENERGY: 1200000 6.5004 9.6487 20.4743 0.0000 -10605.0576 1428.0171 0.0000 0.0000 1745.2884 -7395.1288 300.7771 -9140.4171 -7403.2454 299.4218 -192.1985 -152.0070 30589.3257 117.0740 165.3700
ENERGY: 1500000 7.6192 12.7279 20.2224 0.0000 -10485.4349 1377.0866 0.0000 0.0000 1728.8035 -7338.9753 297.9361 -9067.7788 -7394.6242 299.3986 131.6844 151.2182 29845.8617 104.4853 156.1940
TCL: Running FEP window  13: Lambda1 0.6    Lambda2 0.65   [dLambda 0.050000000000000044]
TCL: Setting parameter firsttimestep to 0
TCL: Setting parameter alchLambda to 0.6
Info: NONBONDED TABLE R-SQUARED SPACING: 0.0625
Info: NONBONDED TABLE SIZE: 705 POINTS
TCL: Setting parameter alchLambda2 to 0.65
Info: NONBONDED TABLE R-SQUARED SPACING: 0.0625
Info: NONBONDED TABLE SIZE: 705 POINTS
TCL: Running for 1500000 steps
ETITLE: TS BOND ANGLE DIHED IMPRP ELECT VDW BOUNDARY MISC KINETIC TOTAL TEMP POTENTIAL TOTALAVG TEMPAVG PRESSURE GPRESSURE VOLUME PRESSAVG GPRESSAVG
ENERGY: 0 7.6192 12.7279 20.2224 0.0000 -10485.6279 1377.8152 0.0000 0.0000 1727.9687 -7339.2745 297.7923 -9067.2432 -7339.2745 297.7923 94.4797 171.5300 29845.8617 94.4797 171.5300
ENERGY: 300000 4.2825 13.6065 19.9058 0.0000 -10521.3257 1407.3147 0.0000 0.0000 1661.3081 -7414.9082 286.3042 -9076.2163 -7425.0955 295.6846 99.9199 71.7916 30063.8698 85.7883 118.2566
ENERGY: 600000 4.0414 9.3065 19.7407 0.0000 -10405.0210 1366.1422 0.0000 0.0000 1739.4043 -7266.3858 299.7630 -9005.7901 -7411.8044 295.4760 162.7827 194.7630 30003.4411 89.5387 141.2327
ENERGY: 900000 5.2381 13.9600 17.4597 0.0000 -10483.8915 1330.4066 0.0000 0.0000 1818.4970 -7298.3301 313.3936 -9116.8271 -7390.1263 299.6359 -438.5779 -331.2662 29985.1307 -55.5197 4.5406
ENERGY: 1200000 6.0875 14.0746 20.3800 0.0000 -10613.6533 1414.1638 0.0000 0.0000 1750.6181 -7408.3293 301.6956 -9158.9474 -7388.9493 300.5319 168.8523 277.3952 29580.9981 -62.6634 4.6418
ENERGY: 1500000 7.6596 15.9015 21.9462 0.0000 -10375.1790 1330.4903 0.0000 0.0000 1782.0736 -7217.1079 307.1165 -8999.1814 -7373.2583 301.6139 -274.9315 -283.1117 30014.8236 -56.3297 5.5899
TCL: Running FEP window  14: Lambda1 0.65   Lambda2 0.7000000000000001 [dLambda 0.050000000000000044]
TCL: Setting parameter firsttimestep to 0
TCL: Setting parameter alchLambda to 0.65
Info: NONBONDED TABLE R-SQUARED SPACING: 0.0625
Info: NONBONDED TABLE SIZE: 705 POINTS
TCL: Setting parameter alchLambda2 to 0.7000000000000001
Info: NONBONDED TABLE R-SQUARED SPACING: 0.0625
Info: NONBONDED TABLE SIZE: 705 POINTS
TCL: Running for 1500000 steps
ETITLE: TS BOND ANGLE DIHED IMPRP ELECT VDW BOUNDARY MISC KINETIC TOTAL TEMP POTENTIAL TOTALAVG TEMPAVG PRESSURE GPRESSURE VOLUME PRESSAVG GPRESSAVG
ENERGY: 0 7.6596 15.9015 21.9462 0.0000 -10375.6788 1329.8716 0.0000 0.0000 1781.2362 -7219.0637 306.9722 -9000.2999 -7219.0637 306.9722 -338.2043 -275.5284 30014.8236 -338.2043 -275.5284
ENERGY: 300000 4.7821 14.6515 22.0286 0.0000 -10505.0436 1313.3840 0.0000 0.0000 1707.0148 -7443.1825 294.1811 -9150.1974 -7360.4678 298.2250 -731.1241 -653.2508 30040.0745 -517.8969 -438.1337
ENERGY: 600000 4.7943 14.1582 18.9844 0.0000 -10655.9236 1416.2400 0.0000 0.0000 1729.4297 -7472.3170 298.0440 -9201.7467 -7394.9266 297.7199 219.3759 267.8640 29669.4242 -308.5264 -232.6624
ENERGY: 900000 7.5675 14.1723 19.4860 0.0000 -10470.5143 1331.9111 0.0000 0.0000 1766.0083 -7331.3691 304.3479 -9097.3774 -7390.0120 299.2731 -365.3853 -239.4666 29937.6563 -152.3859 -83.5300
ENERGY: 1200000 10.3014 14.7140 17.9704 0.0000 -10608.3928 1450.0315 0.0000 0.0000 1733.0041 -7382.3714 298.6600 -9115.3755 -7389.4026 299.2461 523.5159 617.6885 29717.2120 -47.0264 21.1820
ENERGY: 1500000 8.4918 13.6816 23.7712 0.0000 -10613.3024 1391.0426 0.0000 0.0000 1713.0206 -7463.2945 295.2162 -9176.3152 -7395.4118 298.9320 -375.3944 -275.4214 30181.8030 -32.7156 43.6197
TCL: Running FEP window  15: Lambda1 0.7000000000000001 Lambda2 0.7500000000000001 [dLambda 0.050000000000000044]
TCL: Setting parameter firsttimestep to 0
TCL: Setting parameter alchLambda to 0.7000000000000001
Info: NONBONDED TABLE R-SQUARED SPACING: 0.0625
Info: NONBONDED TABLE SIZE: 705 POINTS
TCL: Setting parameter alchLambda2 to 0.7500000000000001
Info: NONBONDED TABLE R-SQUARED SPACING: 0.0625
Info: NONBONDED TABLE SIZE: 705 POINTS
TCL: Running for 1500000 steps
ETITLE: TS BOND ANGLE DIHED IMPRP ELECT VDW BOUNDARY MISC KINETIC TOTAL TEMP POTENTIAL TOTALAVG TEMPAVG PRESSURE GPRESSURE VOLUME PRESSAVG GPRESSAVG
ENERGY: 0 8.4918 13.6816 23.7712 0.0000 -10614.4540 1391.3510 0.0000 0.0000 1712.1512 -7465.0071 295.0663 -9177.1583 -7465.0071 295.0663 -340.5287 -254.8491 30181.8030 -340.5287 -254.8491
ENERGY: 300000 5.1286 13.9957 21.4219 0.0000 -10722.0743 1504.2760 0.0000 0.0000 1749.1994 -7428.0526 301.4511 -9177.2520 -7422.9150 297.1016 842.9892 914.6249 29610.3013 -4.3572 68.6133
ENERGY: 600000 11.0414 13.5983 20.0314 0.0000 -10589.1902 1400.1594 0.0000 0.0000 1752.6390 -7391.7208 302.0438 -9144.3597 -7416.1507 296.7140 -122.5049 -94.6032 30117.4994 93.3988 145.9557
ENERGY: 900000 7.7499 17.8654 16.9729 0.0000 -10699.3606 1521.1891 0.0000 0.0000 1690.3166 -7445.2667 291.3034 -9135.5833 -7435.3482 295.9360 883.0118 958.7329 29828.3784 322.2450 384.9918
ENERGY: 1200000 6.6385 9.4264 18.3615 0.0000 -10501.4689 1374.1917 0.0000 0.0000 1727.2456 -7365.6053 297.6676 -9092.8509 -7428.6456 296.3821 -301.6354 -276.0276 30352.0311 236.0539 292.4452
ENERGY: 1500000 6.0652 14.7861 17.7605 0.0000 -10564.7773 1362.1870 0.0000 0.0000 1719.9204 -7444.0583 296.4052 -9163.9786 -7423.1652 296.4438 -91.2566 -8.0618 29685.5817 187.4841 246.9093
TCL: Running FEP window  16: Lambda1 0.7500000000000001 Lambda2 0.8000000000000002 [dLambda 0.050000000000000044]
TCL: Setting parameter firsttimestep to 0
TCL: Setting parameter alchLambda to 0.7500000000000001
Info: NONBONDED TABLE R-SQUARED SPACING: 0.0625
Info: NONBONDED TABLE SIZE: 705 POINTS
TCL: Setting parameter alchLambda2 to 0.8000000000000002
Info: NONBONDED TABLE R-SQUARED SPACING: 0.0625
Info: NONBONDED TABLE SIZE: 705 POINTS
TCL: Running for 1500000 steps
ETITLE: TS BOND ANGLE DIHED IMPRP ELECT VDW BOUNDARY MISC KINETIC TOTAL TEMP POTENTIAL TOTALAVG TEMPAVG PRESSURE GPRESSURE VOLUME PRESSAVG GPRESSAVG
ENERGY: 0 6.0652 14.7861 17.7605 0.0000 -10566.6197 1362.1944 0.0000 0.0000 1719.0862 -7446.7275 296.2615 -9165.8137 -7446.7275 296.2615 -84.3109 3.9589 29685.5817 -84.3109 3.9589
ENERGY: 300000 5.1659 13.1999 20.8321 0.0000 -10561.9298 1425.3755 0.0000 0.0000 1743.3312 -7354.0251 300.4398 -9097.3563 -7398.4946 299.6516 162.2272 252.7040 29797.7495 185.6343 245.1064
ENERGY: 600000 8.0248 15.9497 22.8073 0.0000 -10659.2256 1428.5302 0.0000 0.0000 1724.5763 -7459.3374 297.2076 -9183.9137 -7421.6194 299.8913 -499.0916 -401.2039 30144.8437 209.6677 278.7041
ENERGY: 900000 5.3720 12.6030 20.5629 0.0000 -10705.1216 1483.6866 0.0000 0.0000 1734.5416 -7448.3554 298.9250 -9182.8970 -7410.2122 302.3427 632.9115 700.3792 29803.0488 170.2844 245.4120
ENERGY: 1200000 12.6754 13.8842 19.7056 0.0000 -10585.8233 1433.4748 0.0000 0.0000 1773.2317 -7332.8517 305.5927 -9106.0833 -7396.7237 304.4847 734.7953 806.2631 29308.9832 141.4486 222.7744
ENERGY: 1500000 8.5748 13.4038 18.1131 0.0000 -10685.6479 1410.2203 0.0000 0.0000 1749.8792 -7485.4567 301.5682 -9235.3358 -7403.0650 303.2967 -298.4880 -298.7194 29606.4887 93.0484 164.7789
TCL: Running FEP window  17: Lambda1 0.8000000000000002 Lambda2 0.8500000000000002 [dLambda 0.050000000000000044]
TCL: Setting parameter firsttimestep to 0
TCL: Setting parameter alchLambda to 0.8000000000000002
Info: NONBONDED TABLE R-SQUARED SPACING: 0.0625
Info: NONBONDED TABLE SIZE: 705 POINTS
TCL: Setting parameter alchLambda2 to 0.8500000000000002
Info: NONBONDED TABLE R-SQUARED SPACING: 0.0625
Info: NONBONDED TABLE SIZE: 705 POINTS
TCL: Running for 1500000 steps
ETITLE: TS BOND ANGLE DIHED IMPRP ELECT VDW BOUNDARY MISC KINETIC TOTAL TEMP POTENTIAL TOTALAVG TEMPAVG PRESSURE GPRESSURE VOLUME PRESSAVG GPRESSAVG
ENERGY: 0 8.5748 13.4039 18.1131 0.0000 -10686.3622 1409.3475 0.0000 0.0000 1748.9755 -7487.9475 301.4125 -9236.9230 -7487.9475 301.4125 -369.2958 -292.2083 29606.4887 -369.2958 -292.2083
ENERGY: 300000 11.8949 10.9441 21.0550 0.0000 -10547.8998 1334.5810 0.0000 0.0000 1746.1332 -7423.2916 300.9227 -9169.4248 -7443.5992 297.0851 -542.7348 -494.8418 29780.9599 -253.3932 -182.9904
ENERGY: 600000 5.2575 15.2125 20.0693 0.0000 -10481.2283 1359.6061 0.0000 0.0000 1726.9251 -7354.1578 297.6124 -9081.0829 -7418.5633 299.7924 -232.9644 -194.2626 30022.1344 -224.5876 -169.4259
ENERGY: 900000 5.7382 15.2707 21.2013 0.0000 -10615.7912 1414.5941 0.0000 0.0000 1769.1488 -7389.8381 304.8891 -9158.9870 -7410.8405 300.7959 -148.8794 -51.2668 30080.5150 -309.8817 -247.7152
ENERGY: 1200000 5.5037 16.1917 23.1976 0.0000 -10525.3947 1358.9451 0.0000 0.0000 1749.0119 -7372.5446 301.4188 -9121.5565 -7409.0280 300.6035 -137.9674 -38.3865 29896.0584 -208.0883 -155.3236
ENERGY: 1500000 7.0190 18.0232 21.1704 0.0000 -10511.6729 1365.5293 0.0000 0.0000 1722.0973 -7377.8336 296.7804 -9099.9309 -7403.9293 300.0677 -405.8026 -284.2859 30070.7877 -249.6322 -189.8103
TCL: Running FEP window  18: Lambda1 0.8500000000000002 Lambda2 0.9000000000000002 [dLambda 0.050000000000000044]
TCL: Setting parameter firsttimestep to 0
TCL: Setting parameter alchLambda to 0.8500000000000002
Info: NONBONDED TABLE R-SQUARED SPACING: 0.0625
Info: NONBONDED TABLE SIZE: 705 POINTS
TCL: Setting parameter alchLambda2 to 0.9000000000000002
Info: NONBONDED TABLE R-SQUARED SPACING: 0.0625
Info: NONBONDED TABLE SIZE: 705 POINTS
TCL: Running for 1500000 steps
ETITLE: TS BOND ANGLE DIHED IMPRP ELECT VDW BOUNDARY MISC KINETIC TOTAL TEMP POTENTIAL TOTALAVG TEMPAVG PRESSURE GPRESSURE VOLUME PRESSAVG GPRESSAVG
ENERGY: 0 7.0190 18.0232 21.1704 0.0000 -10513.5827 1365.4964 0.0000 0.0000 1721.2172 -7380.6564 296.6287 -9101.8736 -7380.6564 296.6287 -345.1965 -265.7052 30070.7877 -345.1965 -265.7052
ENERGY: 300000 9.0076 15.3570 21.1686 0.0000 -10698.4310 1444.8842 0.0000 0.0000 1750.3728 -7457.6408 301.6533 -9208.0136 -7402.1028 299.3614 -27.6579 46.4525 30039.9472 -4.4716 56.0738
ENERGY: 600000 13.0032 13.3414 19.5429 0.0000 -10515.7384 1310.2533 0.0000 0.0000 1716.3128 -7443.2847 295.7835 -9159.5975 -7422.6927 298.2767 -1079.1454 -1019.5953 30079.2374 -276.5962 -221.8019
ENERGY: 900000 6.7818 19.4225 19.6754 0.0000 -10532.2145 1375.3607 0.0000 0.0000 1767.6809 -7343.2931 304.6361 -9110.9741 -7407.6583 300.1556 263.6796 252.0402 29912.4364 11.7282 63.3702
ENERGY: 1200000 7.2587 14.4555 19.4286 0.0000 -10528.7227 1347.6119 0.0000 0.0000 1773.2371 -7366.7308 305.5937 -9139.9680 -7404.5923 300.3629 -314.8204 -255.6631 29981.5747 79.4554 134.5887
ENERGY: 1500000 6.5536 13.5528 23.9638 0.0000 -10578.2951 1366.8804 0.0000 0.0000 1738.1847 -7429.1597 299.5529 -9167.3445 -7407.6900 300.7393 -174.9944 -77.5982 29611.2081 68.7370 121.1804
TCL: Running FEP window  19: Lambda1 0.9000000000000002 Lambda2 0.9500000000000003 [dLambda 0.050000000000000044]
TCL: Setting parameter firsttimestep to 0
TCL: Setting parameter alchLambda to 0.9000000000000002
Info: NONBONDED TABLE R-SQUARED SPACING: 0.0625
Info: NONBONDED TABLE SIZE: 705 POINTS
TCL: Setting parameter alchLambda2 to 0.9500000000000003
Info: NONBONDED TABLE R-SQUARED SPACING: 0.0625
Info: NONBONDED TABLE SIZE: 705 POINTS
TCL: Running for 1500000 steps
ETITLE: TS BOND ANGLE DIHED IMPRP ELECT VDW BOUNDARY MISC KINETIC TOTAL TEMP POTENTIAL TOTALAVG TEMPAVG PRESSURE GPRESSURE VOLUME PRESSAVG GPRESSAVG
ENERGY: 0 6.5536 13.5528 23.9638 0.0000 -10578.6725 1366.7483 0.0000 0.0000 1737.3232 -7430.5309 299.4044 -9167.8540 -7430.5309 299.4044 -149.1027 -59.1503 29611.2081 -149.1027 -59.1503
ENERGY: 300000 8.3174 17.7783 21.7966 0.0000 -10517.4421 1315.7893 0.0000 0.0000 1694.2118 -7459.5486 291.9747 -9153.7605 -7421.2110 298.5411 -1145.4849 -1069.8616 30212.5475 -479.3193 -391.6219
ENERGY: 600000 5.4205 21.3820 20.7419 0.0000 -10599.8089 1435.1562 0.0000 0.0000 1740.8963 -7376.2120 300.0202 -9117.1083 -7397.4483 300.8743 538.8235 604.4080 29652.4415 -296.1971 -217.8775
ENERGY: 900000 6.8951 14.7344 20.4609 0.0000 -10512.0522 1343.5256 0.0000 0.0000 1733.1996 -7393.2367 298.6937 -9126.4363 -7389.8546 300.3200 -552.1822 -480.2471 30168.7597 -314.3313 -243.7732
ENERGY: 1200000 4.9854 12.0735 19.4778 0.0000 -10623.6905 1460.1019 0.0000 0.0000 1758.0155 -7369.0365 302.9704 -9127.0520 -7392.2628 301.0771 578.1491 650.9789 30123.8378 -175.5752 -106.4840
ENERGY: 1500000 7.4853 17.4758 23.0629 0.0000 -10517.6830 1346.0684 0.0000 0.0000 1747.3927 -7376.1979 301.1397 -9123.5906 -7385.5484 301.0652 -501.1483 -406.1764 30255.8328 -241.7303 -170.9846
TCL: Running FEP window  20: Lambda1 0.9500000000000003 Lambda2 1.0    [dLambda 0.04999999999999971]
TCL: Setting parameter firsttimestep to 0
TCL: Setting parameter alchLambda to 0.9500000000000003
Info: NONBONDED TABLE R-SQUARED SPACING: 0.0625
Info: NONBONDED TABLE SIZE: 705 POINTS
TCL: Setting parameter alchLambda2 to 1.0
Info: NONBONDED TABLE R-SQUARED SPACING: 0.0625
Info: NONBONDED TABLE SIZE: 705 POINTS
TCL: Running for 1500000 steps
ETITLE: TS BOND ANGLE DIHED IMPRP ELECT VDW BOUNDARY MISC KINETIC TOTAL TEMP POTENTIAL TOTALAVG TEMPAVG PRESSURE GPRESSURE VOLUME PRESSAVG GPRESSAVG
ENERGY: 0 7.4853 17.4758 23.0629 0.0000 -10519.6529 1347.4620 0.0000 0.0000 1746.5561 -7377.6109 300.9955 -9124.1669 -7377.6109 300.9955 -452.7962 -364.4918 30255.8328 -452.7962 -364.4918
ENERGY: 300000 6.6580 15.7197 21.6430 0.0000 -10546.5674 1328.6832 0.0000 0.0000 1765.3209 -7408.5426 304.2294 -9173.8635 -7393.3940 303.8535 -840.5929 -770.8160 30551.9797 -380.2266 -337.9248
ENERGY: 600000 6.3740 16.2535 17.0466 0.0000 -10564.0247 1382.9382 0.0000 0.0000 1747.2147 -7394.1978 301.1091 -9141.4125 -7394.7708 300.8315 -306.4431 -222.6470 30090.6825 -426.1755 -363.1042
ENERGY: 900000 8.0299 12.0090 21.8028 0.0000 -10570.0585 1350.2364 0.0000 0.0000 1742.2120 -7435.7684 300.2469 -9177.9805 -7396.5191 300.4154 -917.5138 -839.2962 30383.4916 -465.7759 -407.6407
ENERGY: 1200000 5.0667 13.2055 18.9179 0.0000 -10670.9770 1381.2012 0.0000 0.0000 1715.9387 -7536.6470 295.7190 -9252.5856 -7395.0333 300.9222 -335.7137 -317.0856 29706.4874 -512.0564 -448.1222
ENERGY: 1500000 9.5781 10.7559 18.5007 0.0000 -10542.9594 1317.2289 0.0000 0.0000 1748.3700 -7438.5258 301.3081 -9186.8958 -7397.6383 300.8029 -774.4894 -671.9522 29773.3545 -462.4061 -397.7370
TCL: Exiting due to exit command.
