Info: SIMULATION PARAMETERS:
Info: TIMESTEP               2
Info: NUMBER OF STEPS        0
Info: STEPS PER CYCLE        10
Info: PERIODIC CELL BASIS 1  30.8455 0 0
Info: PERIODIC CELL BASIS 2  0 30.0644 0
Info: PERIODIC CELL BASIS 3  0 0 32.7931
Info: PERIODIC CELL CENTER   0 0 0
Info: WRAPPING WATERS AROUND PERIODIC BOUNDARIES ON OUTPUT.
Info: WRAPPING ALL CLUSTERS AROUND PERIODIC BOUNDARIES ON OUTPUT.
Info: FIRST LDB TIMESTEP     50
Info: LAST LDB TIMESTEP     -1
Info: HOM BACKGROUND SCALING 1
Info: PME BACKGROUND SCALING 1
Info: MIN ATOMS PER PATCH    40
Info: EMPTY PATCH LOAD       40 ATOMS
Info: VELOCITY FILE          mobley_6896128_equil.vel
Info: CENTER OF MASS MOVING INITIALLY? NO
Info: DIELECTRIC             1
Info: EXCLUDE                SCALED ONE-FOUR
Info: 1-4 ELECTROSTATICS SCALED BY 0.833333
Info: MODIFIED 1-4 VDW PARAMETERS WILL BE USED
Info: DCD FILENAME           mobley_6896128_prod.dcd
Info: DCD FREQUENCY          100000
Info: DCD FIRST STEP         100000
Info: DCD FILE WILL CONTAIN UNIT CELL DATA
Info: XST FILENAME           mobley_6896128_prod.xst
Info: XST FREQUENCY          100000
Info: NO VELOCITY DCD OUTPUT
Info: NO FORCE DCD OUTPUT
Info: OUTPUT FILENAME        mobley_6896128_prod
Info: BINARY OUTPUT FILES WILL BE USED
Info: RESTART FILENAME       mobley_6896128_prod.restart
Info: RESTART FREQUENCY      100000
Info: BINARY RESTART FILES WILL BE USED
Info: CUTOFF                 9
Info: PAIRLIST DISTANCE      11
Info: PAIRLIST SHRINK RATE   0.01
Info: PAIRLIST GROW RATE     0.01
Info: PAIRLIST TRIGGER       0.3
Info: PAIRLISTS PER CYCLE    2
Info: PAIRLISTS ENABLED
Info: MARGIN                 2
Info: HYDROGEN GROUP CUTOFF  2.5
Info: PATCH DIMENSION        15.5
Info: ENERGY OUTPUT STEPS    100000
Info: ENERGY EVALUATION STEPS    100000
Info: OUTPUT ENERGY PRECISION 4
Info: CROSSTERM ENERGY INCLUDED IN DIHEDRAL
Info: TIMING OUTPUT STEPS    1000000
Info: PRESSURE OUTPUT STEPS  100000
Info: ALCHEMICAL FEP ON
Info: FEP CURRENT LAMBDA VALUE     0
Info: FEP COMPARISON LAMBDA VALUE  0.05
Info: FEP INTRA-ALCHEMICAL NON-BONDED INTERACTIONS WILL BE RETAINED
Info: FEP INTRA-ALCHEMICAL BONDED INTERACTIONS WILL BE RETAINED
Info: FEP VDW SHIFTING COEFFICIENT 5
Info: FEP ELEC. ACTIVE FOR ANNIHILATED PARTICLES BETWEEN LAMBDA = 0 AND LAMBDA = 0.5
Info: FEP ELEC. ACTIVE FOR EXNIHILATED PARTICLES BETWEEN LAMBDA = 0.5 AND LAMBDA = 1
Info: FEP VDW ACTIVE FOR ANNIHILATED PARTICLES BETWEEN LAMBDA = 0 AND LAMBDA = 1
Info: FEP VDW ACTIVE FOR EXNIHILATED PARTICLES BETWEEN LAMBDA = 0 AND LAMBDA = 1
Info: FEP BOND ACTIVE FOR ANNIHILATED PARTICLES BETWEEN LAMBDA = 1 AND LAMBDA = 1
Info: FEP BOND ACTIVE FOR EXNIHILATED PARTICLES BETWEEN LAMBDA = 0 AND LAMBDA = 0
Info: LANGEVIN DYNAMICS ACTIVE
Info: LANGEVIN TEMPERATURE   300
Info: LANGEVIN USING BBK INTEGRATOR
Info: LANGEVIN DAMPING COEFFICIENT IS 1 INVERSE PS
Info: LANGEVIN DYNAMICS APPLIED TO HYDROGENS
Info: LANGEVIN PISTON PRESSURE CONTROL ACTIVE
Info:        TARGET PRESSURE IS 1.01325 BAR
Info:     OSCILLATION PERIOD IS 50 FS
Info:             DECAY TIME IS 25 FS
Info:     PISTON TEMPERATURE IS 300 K
Info:       PRESSURE CONTROL IS GROUP-BASED
Info:    INITIAL STRAIN RATE IS -0.000244007 -0.000244007 -0.000244007
Info:       CELL FLUCTUATION IS ISOTROPIC
Info: PARTICLE MESH EWALD (PME) ACTIVE
Info: PME TOLERANCE               1e-06
Info: PME EWALD COEFFICIENT       0.348832
Info: PME INTERPOLATION ORDER     4
Info: PME GRID DIMENSIONS         32 32 36
Info: PME MAXIMUM GRID SPACING    1
Info: PME CALCULATION WILL BE PERFORMED ON GPU
Info: FULL ELECTROSTATIC EVALUATION FREQUENCY      2
Info: USING VERLET I (r-RESPA) MTS SCHEME.
Info: C1 SPLITTING OF LONG RANGE ELECTROSTATICS
Info: PLACING ATOMS IN PATCHES BY HYDROGEN GROUPS
Info: RIGID BONDS TO HYDROGEN : ALL
Info:         ERROR TOLERANCE : 1e-08
Info:          MAX ITERATIONS : 100
Info: RIGID WATER USING SETTLE ALGORITHM
Info: RANDOM NUMBER SEED     1744011830
Info: USE HYDROGEN BONDS?    NO
Info: Using AMBER format force field!
Info: AMBER PARM FILE        mobley_6896128.prmtop
Info: COORDINATE PDB         mobley_6896128.pdb
Info: Exclusions will be read from PARM file!
Info: SCNB (VDW SCALING)     2
Info: USING ARITHMETIC MEAN TO COMBINE L-J SIGMA PARAMETERS
Info: BINARY COORDINATES     mobley_6896128_equil.coor
Info: SUMMARY OF PARAMETERS:
Info: 4 BONDS
Info: 3 ANGLES
Info:   3 HARMONIC
Info:   0 COSINE-BASED
Info: 5 DIHEDRAL
Info: 0 IMPROPER
Info: 0 CROSSTERM
Info: 0 VDW
Info: 10 VDW_PAIRS
Info: 0 NBTHOLE_PAIRS
Info: To read alchdata from file: mobley_6896128.pdb
Info: To read alchflag data from column: 5
Info: STRUCTURE SUMMARY:
Info: 2960 ATOMS
Info: 2959 BONDS
Info: 48 ANGLES
Info: 75 DIHEDRALS
Info: 0 IMPROPERS
Info: 0 CROSSTERMS
Info: 3070 EXCLUSIONS
Info: 2952 RIGID BONDS
Info: ALCH: 0 ATOMS TO DISAPPEAR IN FINAL STATE
Info: ALCH: 26 ATOMS TO APPEAR IN FINAL STATE
Info: 5928 DEGREES OF FREEDOM
Info: 986 HYDROGEN GROUPS
Info: 4 ATOMS IN LARGEST HYDROGEN GROUP
Info: 986 MIGRATION GROUPS
Info: 4 ATOMS IN LARGEST MIGRATION GROUP
Info: TOTAL MASS = 17733.9 amu
Info: TOTAL CHARGE = 0.000100002 e
Info: MASS DENSITY = 0.968356 g/cm^3
Info: ATOM DENSITY = 0.0973339 atoms/A^3
Info: ADDED 0 IMPLICIT EXCLUSIONS
Info: NONBONDED TABLE R-SQUARED SPACING: 0.0625
Info: NONBONDED TABLE SIZE: 705 POINTS
Info: REMOVING COM VELOCITY -0.137963 -0.0406049 -0.156633
Info: Use 3D box decompostion in PME FFT.
Info: Updated CUDA force table with 4096 elements.
Info: Updated CUDA LJ table with 4 x 4 elements.
Info: Found 29 unique exclusion lists needing 100 bytes
TCL: Running for 1500000 steps
ETITLE: TS BOND ANGLE DIHED IMPRP ELECT VDW BOUNDARY MISC KINETIC TOTAL TEMP POTENTIAL TOTALAVG TEMPAVG PRESSURE GPRESSURE VOLUME PRESSAVG GPRESSAVG
ENERGY: 0 4.4790 12.0535 5.5294 0.0000 -10749.5776 1466.2517 0.0000 0.0000 1791.2346 -7470.0293 304.1128 -9261.2640 -7470.0293 304.1128 -158.3073 -78.6050 30410.7824 -158.3073 -78.6050
ENERGY: 300000 2.3381 11.6280 5.3389 0.0000 -10758.5042 1488.0444 0.0000 0.0000 1773.4009 -7477.7538 301.0850 -9251.1547 -7494.2614 300.5674 296.4557 312.6404 30199.4221 -40.7991 15.1783
ENERGY: 600000 3.8791 15.3527 4.7440 0.0000 -10553.9172 1349.1129 0.0000 0.0000 1820.5262 -7360.3022 309.0859 -9180.8284 -7473.3558 301.7318 -818.1819 -718.6411 30483.5372 -168.0811 -110.6031
ENERGY: 900000 1.5098 12.6300 6.0600 0.0000 -10577.9100 1381.3784 0.0000 0.0000 1822.7350 -7353.5967 309.4609 -9176.3317 -7468.1978 302.0755 -64.4102 -6.6067 29968.9072 -36.3076 29.0805
ENERGY: 1200000 3.0442 16.2416 3.5528 0.0000 -10644.6507 1476.2489 0.0000 0.0000 1737.4398 -7408.1234 294.9796 -9145.5632 -7462.2162 301.0726 273.0615 344.5596 30247.0380 -14.8450 53.3695
ENERGY: 1500000 1.8827 10.6077 5.8883 0.0000 -10578.5402 1385.1390 0.0000 0.0000 1830.2877 -7344.7348 310.7431 -9175.0224 -7446.8959 301.4027 -599.1729 -530.1447 30840.7385 -29.4214 37.6256
TCL: Running FEP window   2: Lambda1 0.05   Lambda2 0.1    [dLambda 0.05  ]
TCL: Setting parameter firsttimestep to 0
TCL: Setting parameter alchLambda to 0.05
Info: NONBONDED TABLE R-SQUARED SPACING: 0.0625
Info: NONBONDED TABLE SIZE: 705 POINTS
TCL: Setting parameter alchLambda2 to 0.1
Info: NONBONDED TABLE R-SQUARED SPACING: 0.0625
Info: NONBONDED TABLE SIZE: 705 POINTS
TCL: Running for 1500000 steps
ETITLE: TS BOND ANGLE DIHED IMPRP ELECT VDW BOUNDARY MISC KINETIC TOTAL TEMP POTENTIAL TOTALAVG TEMPAVG PRESSURE GPRESSURE VOLUME PRESSAVG GPRESSAVG
ENERGY: 0 1.8827 10.6077 5.8883 0.0000 -10578.5416 1389.3993 0.0000 0.0000 1829.4292 -7341.3344 310.5974 -9170.7636 -7341.3344 310.5974 -611.2743 -525.7481 30840.7385 -611.2743 -525.7481
ENERGY: 300000 2.9592 10.2918 3.3929 0.0000 -10786.8884 1558.9743 0.0000 0.0000 1733.8751 -7477.3950 294.3744 -9211.2702 -7426.0182 302.9240 1001.7400 1083.1373 29859.0447 139.0504 228.5742
ENERGY: 600000 4.2917 13.0245 3.4502 0.0000 -10653.8477 1440.2824 0.0000 0.0000 1727.7897 -7465.0092 293.3412 -9192.7989 -7457.4516 301.5599 -419.8880 -324.8428 30620.6810 -196.7651 -112.2066
ENERGY: 900000 1.2889 12.0270 6.7718 0.0000 -10721.7963 1511.5589 0.0000 0.0000 1762.0235 -7428.1262 299.1534 -9190.1498 -7451.1025 302.3894 479.6465 562.5580 30314.5274 -143.1447 -65.3397
ENERGY: 1200000 0.5087 15.1986 5.5438 0.0000 -10649.1877 1453.9985 0.0000 0.0000 1814.2841 -7359.6539 308.0261 -9173.9381 -7453.3419 301.7483 455.2772 463.9088 30090.3373 -37.4775 27.3798
ENERGY: 1500000 3.2440 10.2791 4.3853 0.0000 -10628.6643 1454.5490 0.0000 0.0000 1793.3477 -7362.8593 304.4715 -9156.2069 -7445.2096 301.4134 201.0731 246.2409 30397.0302 25.1553 84.9934
TCL: Running FEP window   3: Lambda1 0.1    Lambda2 0.15000000000000002 [dLambda 0.05000000000000002]
TCL: Setting parameter firsttimestep to 0
TCL: Setting parameter alchLambda to 0.1
Info: NONBONDED TABLE R-SQUARED SPACING: 0.0625
Info: NONBONDED TABLE SIZE: 705 POINTS
TCL: Setting parameter alchLambda2 to 0.15000000000000002
Info: NONBONDED TABLE R-SQUARED SPACING: 0.0625
Info: NONBONDED TABLE SIZE: 705 POINTS
TCL: Running for 1500000 steps
ETITLE: TS BOND ANGLE DIHED IMPRP ELECT VDW BOUNDARY MISC KINETIC TOTAL TEMP POTENTIAL TOTALAVG TEMPAVG PRESSURE GPRESSURE VOLUME PRESSAVG GPRESSAVG
ENERGY: 0 3.2439 10.2791 4.3853 0.0000 -10628.6639 1456.0869 0.0000 0.0000 1792.4401 -7362.2284 304.3174 -9154.6686 -7362.2284 304.3174 164.3597 252.1941 30397.0302 164.3597 252.1941
ENERGY: 300000 5.6678 16.3077 7.6226 0.0000 -10682.8856 1429.6079 0.0000 0.0000 1777.1826 -7446.4970 301.7270 -9223.6795 -7420.4240 301.8570 -239.0951 -139.1455 30045.1936 -139.8497 -61.3093
ENERGY: 600000 4.3506 9.5968 5.1380 0.0000 -10788.1787 1449.6816 0.0000 0.0000 1756.0970 -7563.3148 298.1472 -9319.4118 -7470.8033 301.5607 -314.7910 -276.9285 30448.0536 -249.2867 -183.5145
ENERGY: 900000 4.6452 15.5922 4.7341 0.0000 -10671.4120 1445.0262 0.0000 0.0000 1790.1160 -7411.2983 303.9229 -9201.4143 -7460.6016 301.5672 -48.0897 -23.0144 30321.2957 -274.4281 -218.7187
ENERGY: 1200000 3.1048 14.3491 5.0276 0.0000 -10639.3707 1346.9889 0.0000 0.0000 1791.3327 -7478.5675 304.1294 -9269.9002 -7469.4782 301.4268 -1073.6440 -958.5543 30340.8445 -281.4718 -221.3616
ENERGY: 1500000 3.6190 12.9016 4.7701 0.0000 -10508.8761 1339.4814 0.0000 0.0000 1790.5100 -7357.5940 303.9898 -9148.1041 -7464.2646 301.1205 -357.9846 -291.6267 30081.7972 -278.1765 -218.9801
TCL: Running FEP window   4: Lambda1 0.15000000000000002 Lambda2 0.2    [dLambda 0.04999999999999999]
TCL: Setting parameter firsttimestep to 0
TCL: Setting parameter alchLambda to 0.15000000000000002
Info: NONBONDED TABLE R-SQUARED SPACING: 0.0625
Info: NONBONDED TABLE SIZE: 705 POINTS
TCL: Setting parameter alchLambda2 to 0.2
Info: NONBONDED TABLE R-SQUARED SPACING: 0.0625
Info: NONBONDED TABLE SIZE: 705 POINTS
TCL: Running for 1500000 steps
ETITLE: TS BOND ANGLE DIHED IMPRP ELECT VDW BOUNDARY MISC KINETIC TOTAL TEMP POTENTIAL TOTALAVG TEMPAVG PRESSURE GPRESSURE VOLUME PRESSAVG GPRESSAVG
ENERGY: 0 3.6190 12.9016 4.7701 0.0000 -10508.8758 1340.3227 0.0000 0.0000 1789.6762 -7357.5863 303.8482 -9147.2624 -7357.5863 303.8482 -369.7992 -282.8975 30081.7972 -369.7992 -282.8975
ENERGY: 300000 1.4634 14.6060 5.0240 0.0000 -10674.2273 1349.5215 0.0000 0.0000 1785.4933 -7518.1189 303.1380 -9303.6122 -7456.8354 302.2998 -962.6513 -910.6934 30423.1904 -432.8431 -386.2481
ENERGY: 600000 1.2611 11.0255 5.4796 0.0000 -10662.5366 1433.9284 0.0000 0.0000 1759.9101 -7450.9319 298.7945 -9210.8420 -7472.3782 300.1087 -12.1167 27.9079 30306.7206 -138.8069 -92.5067
ENERGY: 900000 1.5708 17.4239 5.1910 0.0000 -10779.9769 1462.9834 0.0000 0.0000 1757.5410 -7535.2668 298.3923 -9292.8078 -7495.4941 299.6317 100.7378 171.1962 30073.1274 -30.6935 17.0227
ENERGY: 1200000 3.5814 11.7879 4.3490 0.0000 -10700.2500 1417.5562 0.0000 0.0000 1832.5838 -7430.3917 311.1330 -9262.9755 -7481.8363 301.1023 -349.4222 -294.5447 30209.0789 53.3527 109.0147
ENERGY: 1500000 3.0930 10.6710 6.8046 0.0000 -10842.4426 1569.5315 0.0000 0.0000 1712.7522 -7539.5903 290.7882 -9252.3425 -7480.8983 301.2065 732.6673 834.4300 30105.9288 39.6045 99.4480
TCL: Running FEP window   5: Lambda1 0.2    Lambda2 0.25   [dLambda 0.04999999999999999]
TCL: Setting parameter firsttimestep to 0
TCL: Setting parameter alchLambda to 0.2
Info: NONBONDED TABLE R-SQUARED SPACING: 0.0625
Info: NONBONDED TABLE SIZE: 705 POINTS
TCL: Setting parameter alchLambda2 to 0.25
Info: NONBONDED TABLE R-SQUARED SPACING: 0.0625
Info: NONBONDED TABLE SIZE: 705 POINTS
TCL: Running for 1500000 steps
ETITLE: TS BOND ANGLE DIHED IMPRP ELECT VDW BOUNDARY MISC KINETIC TOTAL TEMP POTENTIAL TOTALAVG TEMPAVG PRESSURE GPRESSURE VOLUME PRESSAVG GPRESSAVG
ENERGY: 0 3.0930 10.6710 6.8046 0.0000 -10842.4434 1570.1517 0.0000 0.0000 1711.8574 -7539.8656 290.6362 -9251.7231 -7539.8656 290.6362 768.2240 843.0295 30105.9288 768.2240 843.0295
ENERGY: 300000 1.3295 8.3178 4.1233 0.0000 -10635.2664 1412.2990 0.0000 0.0000 1822.6628 -7386.5341 309.4486 -9209.1969 -7460.8140 300.2045 -60.4642 36.0742 30198.5219 122.9714 208.5931
ENERGY: 600000 2.1442 16.1877 3.9608 0.0000 -10872.3088 1576.3578 0.0000 0.0000 1762.7687 -7510.8896 299.2799 -9273.6583 -7475.8318 300.9856 1145.4118 1200.7691 29705.8425 150.9750 225.1985
ENERGY: 900000 3.3082 14.1614 6.2721 0.0000 -10710.0059 1430.0450 0.0000 0.0000 1717.1350 -7539.0841 291.5323 -9256.2192 -7463.4832 299.9422 -167.8606 -66.3550 30146.7261 5.7614 82.6106
ENERGY: 1200000 1.4465 14.2086 4.2345 0.0000 -10735.7820 1399.2445 0.0000 0.0000 1801.5837 -7515.0642 305.8698 -9316.6479 -7461.6226 300.3931 -254.7155 -228.9916 29945.8683 36.8592 108.3080
ENERGY: 1500000 1.8820 11.6020 8.1746 0.0000 -10694.9375 1518.8061 0.0000 0.0000 1760.0614 -7394.4115 298.8202 -9154.4729 -7458.2698 299.6676 511.9076 567.6447 30414.6378 9.6107 82.7932
TCL: Running FEP window   6: Lambda1 0.25   Lambda2 0.3    [dLambda 0.04999999999999999]
TCL: Setting parameter firsttimestep to 0
TCL: Setting parameter alchLambda to 0.25
Info: NONBONDED TABLE R-SQUARED SPACING: 0.0625
Info: NONBONDED TABLE SIZE: 705 POINTS
TCL: Setting parameter alchLambda2 to 0.3
Info: NONBONDED TABLE R-SQUARED SPACING: 0.0625
Info: NONBONDED TABLE SIZE: 705 POINTS
TCL: Running for 1500000 steps
ETITLE: TS BOND ANGLE DIHED IMPRP ELECT VDW BOUNDARY MISC KINETIC TOTAL TEMP POTENTIAL TOTALAVG TEMPAVG PRESSURE GPRESSURE VOLUME PRESSAVG GPRESSAVG
ENERGY: 0 1.8820 11.6020 8.1746 0.0000 -10694.9367 1519.6539 0.0000 0.0000 1759.1446 -7394.4797 298.6646 -9153.6243 -7394.4797 298.6646 495.3877 576.6028 30414.6378 495.3877 576.6028
ENERGY: 300000 3.3408 11.8193 4.2091 0.0000 -10616.7782 1373.9542 0.0000 0.0000 1767.0107 -7456.4440 300.0001 -9223.4548 -7431.4746 300.8270 -774.3767 -673.6155 30758.5470 -282.4713 -193.7517
ENERGY: 600000 1.9838 9.7819 6.0278 0.0000 -10786.5568 1566.3425 0.0000 0.0000 1758.4270 -7443.9938 298.5428 -9202.4208 -7436.5301 300.8531 748.2449 823.3876 30549.7726 27.0161 115.0111
ENERGY: 900000 2.0543 12.0688 3.7853 0.0000 -10745.4404 1464.5318 0.0000 0.0000 1800.5928 -7462.4075 305.7016 -9263.0002 -7448.7949 301.1787 204.0033 257.4800 30175.9937 22.6392 100.6322
ENERGY: 1200000 1.7860 18.0898 8.5123 0.0000 -10492.3105 1309.4708 0.0000 0.0000 1708.6581 -7445.7934 290.0931 -9154.4515 -7472.4598 299.4505 -862.0068 -758.6706 30093.8971 -26.0555 57.9240
ENERGY: 1500000 1.4317 13.7436 5.0677 0.0000 -10786.4874 1486.5148 0.0000 0.0000 1809.2578 -7470.4717 307.1727 -9279.7295 -7465.8195 300.3161 158.1861 267.3202 30318.0402 -34.9681 49.8446
TCL: Running FEP window   7: Lambda1 0.3    Lambda2 0.35   [dLambda 0.04999999999999999]
TCL: Setting parameter firsttimestep to 0
TCL: Setting parameter alchLambda to 0.3
Info: NONBONDED TABLE R-SQUARED SPACING: 0.0625
Info: NONBONDED TABLE SIZE: 705 POINTS
TCL: Setting parameter alchLambda2 to 0.35
Info: NONBONDED TABLE R-SQUARED SPACING: 0.0625
Info: NONBONDED TABLE SIZE: 705 POINTS
TCL: Running for 1500000 steps
ETITLE: TS BOND ANGLE DIHED IMPRP ELECT VDW BOUNDARY MISC KINETIC TOTAL TEMP POTENTIAL TOTALAVG TEMPAVG PRESSURE GPRESSURE VOLUME PRESSAVG GPRESSAVG
ENERGY: 0 1.4317 13.7436 5.0677 0.0000 -10786.4857 1488.2821 0.0000 0.0000 1808.4304 -7469.5302 307.0322 -9277.9606 -7469.5302 307.0322 198.2712 283.5469 30318.0402 198.2712 283.5469
ENERGY: 300000 2.4702 15.7712 6.0506 0.0000 -10561.9023 1395.5934 0.0000 0.0000 1782.1607 -7359.8561 302.5722 -9142.0168 -7402.9537 305.9831 -170.3401 -134.7816 30339.5754 -41.0452 27.1909
ENERGY: 600000 5.6215 12.4420 5.1912 0.0000 -10575.3716 1375.1529 0.0000 0.0000 1780.1929 -7396.7712 302.2381 -9176.9641 -7429.7723 303.1357 -274.4129 -208.1145 29936.2373 -34.3234 30.5336
ENERGY: 900000 1.4418 12.2172 9.5106 0.0000 -10671.8464 1446.9667 0.0000 0.0000 1778.3671 -7423.3429 301.9282 -9201.7100 -7446.9274 301.3053 -161.2529 -89.0950 30773.3111 16.0014 73.7851
ENERGY: 1200000 6.2507 12.7479 3.8999 0.0000 -10644.5735 1451.1853 0.0000 0.0000 1772.1217 -7398.3680 300.8678 -9170.4898 -7440.8237 301.3741 -150.4422 -100.8423 30902.9205 -1.8405 56.2234
ENERGY: 1500000 3.1373 15.1868 5.4874 0.0000 -10573.7581 1393.1270 0.0000 0.0000 1787.1368 -7369.6828 303.4171 -9156.8196 -7442.7355 301.4835 -277.5327 -233.9244 30211.2319 -42.5870 21.9771
TCL: Running FEP window   8: Lambda1 0.35   Lambda2 0.39999999999999997 [dLambda 0.04999999999999999]
TCL: Setting parameter firsttimestep to 0
TCL: Setting parameter alchLambda to 0.35
Info: NONBONDED TABLE R-SQUARED SPACING: 0.0625
Info: NONBONDED TABLE SIZE: 705 POINTS
TCL: Setting parameter alchLambda2 to 0.39999999999999997
Info: NONBONDED TABLE R-SQUARED SPACING: 0.0625
Info: NONBONDED TABLE SIZE: 705 POINTS
TCL: Running for 1500000 steps
ETITLE: TS BOND ANGLE DIHED IMPRP ELECT VDW BOUNDARY MISC KINETIC TOTAL TEMP POTENTIAL TOTALAVG TEMPAVG PRESSURE GPRESSURE VOLUME PRESSAVG GPRESSAVG
ENERGY: 0 3.1373 15.1868 5.4874 0.0000 -10573.7584 1393.9693 0.0000 0.0000 1786.2339 -7369.7437 303.2638 -9155.9775 -7369.7437 303.2638 -293.3412 -221.3986 30211.2319 -293.3412 -221.3986
ENERGY: 300000 1.6487 9.7077 4.3498 0.0000 -10667.8338 1438.8191 0.0000 0.0000 1732.5104 -7480.7981 294.1427 -9213.3085 -7441.3542 297.8114 76.8763 159.0643 30522.6029 -306.5354 -222.6922
ENERGY: 600000 4.1974 12.2117 5.3515 0.0000 -10818.7825 1579.2538 0.0000 0.0000 1747.3086 -7470.4595 296.6551 -9217.7682 -7447.7658 298.6271 1060.1734 1131.0543 30226.6509 -26.2152 38.4336
ENERGY: 900000 1.4454 10.1862 4.9859 0.0000 -10664.8485 1432.3604 0.0000 0.0000 1779.7838 -7436.0869 302.1687 -9215.8707 -7444.0022 299.3919 20.6682 79.4641 30366.4413 114.6819 170.5703
ENERGY: 1200000 1.4699 9.8177 5.7123 0.0000 -10552.2132 1318.1241 0.0000 0.0000 1722.8993 -7494.1900 292.5109 -9217.0893 -7444.4529 298.6012 -950.4224 -938.4609 30200.2354 -35.6498 19.6426
ENERGY: 1500000 1.4057 10.2198 4.7842 0.0000 -10693.9309 1450.2187 0.0000 0.0000 1798.2385 -7429.0640 305.3019 -9227.3026 -7437.3872 299.2355 283.8800 354.1095 30193.7898 27.6184 79.3296
TCL: Running FEP window   9: Lambda1 0.39999999999999997 Lambda2 0.44999999999999996 [dLambda 0.04999999999999999]
TCL: Setting parameter firsttimestep to 0
TCL: Setting parameter alchLambda to 0.39999999999999997
Info: NONBONDED TABLE R-SQUARED SPACING: 0.0625
Info: NONBONDED TABLE SIZE: 705 POINTS
TCL: Setting parameter alchLambda2 to 0.44999999999999996
Info: NONBONDED TABLE R-SQUARED SPACING: 0.0625
Info: NONBONDED TABLE SIZE: 705 POINTS
TCL: Running for 1500000 steps
ETITLE: TS BOND ANGLE DIHED IMPRP ELECT VDW BOUNDARY MISC KINETIC TOTAL TEMP POTENTIAL TOTALAVG TEMPAVG PRESSURE GPRESSURE VOLUME PRESSAVG GPRESSAVG
ENERGY: 0 1.4057 10.2198 4.7842 0.0000 -10693.9271 1450.8895 0.0000 0.0000 1797.3774 -7429.2504 305.1557 -9226.6278 -7429.2504 305.1557 277.8618 368.5212 30193.7898 277.8618 368.5212
ENERGY: 300000 1.6653 15.4536 5.9815 0.0000 -10697.9101 1458.3870 0.0000 0.0000 1805.9084 -7410.5143 306.6041 -9216.4228 -7423.6689 304.9449 389.9562 457.5918 29905.1458 106.4840 153.5894
ENERGY: 600000 2.6200 15.0213 6.3945 0.0000 -10623.9582 1437.1203 0.0000 0.0000 1753.2494 -7409.5527 297.6637 -9162.8021 -7445.4903 303.5125 -8.3032 47.2926 30540.3708 57.1954 106.1471
ENERGY: 900000 1.2778 10.8788 4.1791 0.0000 -10525.3308 1394.3717 0.0000 0.0000 1740.2691 -7374.3542 295.4599 -9114.6233 -7431.4482 303.0968 -68.9804 -2.5506 30503.1244 50.1846 108.9363
ENERGY: 1200000 2.0710 16.4633 7.3353 0.0000 -10739.9283 1481.0565 0.0000 0.0000 1713.2329 -7519.7692 290.8698 -9233.0022 -7442.9900 301.1969 298.9818 387.8273 30003.0002 72.1583 135.7267
ENERGY: 1500000 1.5970 10.1925 3.2289 0.0000 -10668.1704 1440.7591 0.0000 0.0000 1780.2171 -7432.1759 302.2422 -9212.3930 -7441.3112 300.6685 123.7327 158.4046 30333.6084 91.0402 156.6551
TCL: Running FEP window  10: Lambda1 0.44999999999999996 Lambda2 0.49999999999999994 [dLambda 0.04999999999999999]
TCL: Setting parameter firsttimestep to 0
TCL: Setting parameter alchLambda to 0.44999999999999996
Info: NONBONDED TABLE R-SQUARED SPACING: 0.0625
Info: NONBONDED TABLE SIZE: 705 POINTS
TCL: Setting parameter alchLambda2 to 0.49999999999999994
Info: NONBONDED TABLE R-SQUARED SPACING: 0.0625
Info: NONBONDED TABLE SIZE: 705 POINTS
TCL: Running for 1500000 steps
ETITLE: TS BOND ANGLE DIHED IMPRP ELECT VDW BOUNDARY MISC KINETIC TOTAL TEMP POTENTIAL TOTALAVG TEMPAVG PRESSURE GPRESSURE VOLUME PRESSAVG GPRESSAVG
ENERGY: 0 1.5970 10.1925 3.2289 0.0000 -10668.1693 1440.5780 0.0000 0.0000 1779.2958 -7433.2771 302.0858 -9212.5729 -7433.2771 302.0858 72.5570 164.0835 30333.6084 72.5570 164.0835
ENERGY: 300000 1.7006 9.9901 3.4981 0.0000 -10672.7223 1393.9832 0.0000 0.0000 1780.0231 -7483.5272 302.2093 -9263.5503 -7436.7531 301.5900 -105.5655 -37.1677 29763.3631 -304.4494 -254.2962
ENERGY: 600000 1.5421 15.9535 3.7676 0.0000 -10641.8676 1453.7584 0.0000 0.0000 1778.0330 -7388.8130 301.8714 -9166.8460 -7413.5089 302.0770 250.1138 302.3219 30710.1110 -189.0653 -140.2056
ENERGY: 900000 0.9313 12.2732 6.2595 0.0000 -10742.3801 1559.0740 0.0000 0.0000 1743.0637 -7420.7785 295.9344 -9163.8422 -7407.3404 301.7946 968.0244 1106.0998 30404.9971 -115.2042 -60.7493
ENERGY: 1200000 4.4085 12.6410 4.3559 0.0000 -10557.0479 1385.5958 0.0000 0.0000 1788.3081 -7361.7387 303.6159 -9150.0468 -7410.0671 301.8809 -166.3058 -118.6364 30236.8553 -15.9275 37.0650
ENERGY: 1500000 1.4656 16.2499 6.8692 0.0000 -10741.3415 1520.4475 0.0000 0.0000 1769.9328 -7426.3765 300.4962 -9196.3094 -7409.5260 302.0699 756.3625 785.9397 30281.1268 103.2380 153.9448
TCL: Running FEP window  11: Lambda1 0.49999999999999994 Lambda2 0.5499999999999999 [dLambda 0.04999999999999999]
TCL: Setting parameter firsttimestep to 0
TCL: Setting parameter alchLambda to 0.49999999999999994
Info: NONBONDED TABLE R-SQUARED SPACING: 0.0625
Info: NONBONDED TABLE SIZE: 705 POINTS
TCL: Setting parameter alchLambda2 to 0.5499999999999999
Info: NONBONDED TABLE R-SQUARED SPACING: 0.0625
Info: NONBONDED TABLE SIZE: 705 POINTS
TCL: Running for 1500000 steps
ETITLE: TS BOND ANGLE DIHED IMPRP ELECT VDW BOUNDARY MISC KINETIC TOTAL TEMP POTENTIAL TOTALAVG TEMPAVG PRESSURE GPRESSURE VOLUME PRESSAVG GPRESSAVG
ENERGY: 0 1.4656 16.2499 6.8692 0.0000 -10741.3423 1520.6244 0.0000 0.0000 1769.0566 -7427.0766 300.3474 -9196.1332 -7427.0766 300.3474 716.5519 792.2163 30281.1268 716.5519 792.2163
ENERGY: 300000 3.3619 8.5975 5.6622 0.0000 -10702.7725 1460.3818 0.0000 0.0000 1762.3225 -7462.4465 299.2041 -9224.7690 -7457.6114 301.0329 -98.1119 19.6461 30451.5380 324.5120 396.2672
ENERGY: 600000 2.3495 13.2272 4.5829 0.0000 -10553.3156 1319.7761 0.0000 0.0000 1738.3658 -7475.0141 295.1368 -9213.3799 -7467.2723 299.3551 -924.2732 -873.9448 30462.8497 96.6456 170.6909
ENERGY: 900000 0.7760 9.5473 5.0956 0.0000 -10639.6253 1425.9453 0.0000 0.0000 1753.5981 -7444.6630 297.7229 -9198.2611 -7472.5509 298.8363 -70.1521 -112.9355 30773.4955 7.5525 75.4839
ENERGY: 1200000 1.6281 10.4932 4.2284 0.0000 -10695.0682 1446.0055 0.0000 0.0000 1788.5216 -7444.1914 303.6522 -9232.7129 -7456.9398 299.3767 24.0471 82.0063 30397.4962 -47.0473 15.0035
ENERGY: 1500000 4.2378 14.7608 4.6199 0.0000 -10607.2200 1447.0792 0.0000 0.0000 1774.4711 -7362.0512 301.2667 -9136.5223 -7444.7207 300.2843 232.8040 297.5935 30453.3189 -5.3832 54.6948
TCL: Running FEP window  12: Lambda1 0.5499999999999999 Lambda2 0.6    [dLambda 0.050000000000000044]
TCL: Setting parameter firsttimestep to 0
TCL: Setting parameter alchLambda to 0.5499999999999999
Info: NONBONDED TABLE R-SQUARED SPACING: 0.0625
Info: NONBONDED TABLE SIZE: 705 POINTS
TCL: Setting parameter alchLambda2 to 0.6
Info: NONBONDED TABLE R-SQUARED SPACING: 0.0625
Info: NONBONDED TABLE SIZE: 705 POINTS
TCL: Running for 1500000 steps
ETITLE: TS BOND ANGLE DIHED IMPRP ELECT VDW BOUNDARY MISC KINETIC TOTAL TEMP POTENTIAL TOTALAVG TEMPAVG PRESSURE GPRESSURE VOLUME PRESSAVG GPRESSAVG
ENERGY: 0 4.2378 14.7608 4.6199 0.0000 -10607.2807 1446.7781 0.0000 0.0000 1773.6164 -7363.2677 301.1216 -9136.8841 -7363.2677 301.1216 216.8672 301.2604 30453.3189 216.8672 301.2604
ENERGY: 300000 3.2875 9.6373 4.3901 0.0000 -10659.5791 1429.9971 0.0000 0.0000 1785.1080 -7427.1592 303.0726 -9212.2672 -7418.0945 301.9566 -244.3026 -191.1941 30751.3980 132.7766 179.4864
ENERGY: 600000 4.9210 10.3147 5.6672 0.0000 -10659.0446 1409.4429 0.0000 0.0000 1716.6923 -7512.0063 291.4571 -9228.6987 -7437.0260 300.6833 -543.6997 -473.9479 30406.1751 6.4684 46.2150
ENERGY: 900000 3.5672 13.1896 5.2394 0.0000 -10524.0277 1346.6513 0.0000 0.0000 1827.7703 -7327.6098 310.3157 -9155.3802 -7440.9901 300.6102 -678.6656 -577.3123 30675.5765 -42.1017 9.5053
ENERGY: 1200000 0.5304 11.0896 5.0659 0.0000 -10615.3150 1385.1167 0.0000 0.0000 1832.8133 -7380.6991 311.1719 -9213.5124 -7427.2801 301.2305 -428.5924 -319.4191 30539.2169 -66.3636 -3.1885
ENERGY: 1500000 1.0024 13.9773 7.7019 0.0000 -10635.2224 1435.2073 0.0000 0.0000 1744.5069 -7432.8265 296.1794 -9177.3334 -7428.5961 301.1727 276.8255 346.4535 29910.2609 75.3355 140.4284
TCL: Running FEP window  13: Lambda1 0.6    Lambda2 0.65   [dLambda 0.050000000000000044]
TCL: Setting parameter firsttimestep to 0
TCL: Setting parameter alchLambda to 0.6
Info: NONBONDED TABLE R-SQUARED SPACING: 0.0625
Info: NONBONDED TABLE SIZE: 705 POINTS
TCL: Setting parameter alchLambda2 to 0.65
Info: NONBONDED TABLE R-SQUARED SPACING: 0.0625
Info: NONBONDED TABLE SIZE: 705 POINTS
TCL: Running for 1500000 steps
ETITLE: TS BOND ANGLE DIHED IMPRP ELECT VDW BOUNDARY MISC KINETIC TOTAL TEMP POTENTIAL TOTALAVG TEMPAVG PRESSURE GPRESSURE VOLUME PRESSAVG GPRESSAVG
ENERGY: 0 1.0024 13.9773 7.7019 0.0000 -10635.2032 1434.8341 0.0000 0.0000 1743.6080 -7434.0794 296.0268 -9177.6874 -7434.0794 296.0268 286.2146 351.3534 29910.2609 286.2146 351.3534
ENERGY: 300000 2.5229 12.1033 4.4599 0.0000 -10725.3224 1490.9401 0.0000 0.0000 1762.6048 -7452.6913 299.2521 -9215.2962 -7449.4460 297.4279 525.5832 583.1055 30401.0980 -2.2713 57.2697
ENERGY: 600000 1.8481 14.5463 6.2568 0.0000 -10668.3504 1428.3959 0.0000 0.0000 1734.6874 -7482.6159 294.5123 -9217.3033 -7466.3417 296.4885 -224.8699 -191.0573 30674.1106 33.3413 86.6398
ENERGY: 900000 1.3801 8.7330 5.1867 0.0000 -10554.3320 1364.4496 0.0000 0.0000 1707.4906 -7467.0921 289.8948 -9174.5827 -7465.5598 295.6563 -305.1960 -265.6457 30408.5227 -106.0176 -68.6934
ENERGY: 1200000 1.3274 15.2417 6.6912 0.0000 -10670.0330 1340.2763 0.0000 0.0000 1665.2352 -7641.2613 282.7208 -9306.4964 -7480.1626 295.1039 -913.9966 -876.1139 30373.1677 -134.2853 -85.0216
ENERGY: 1500000 2.2981 8.7786 5.0065 0.0000 -10654.5423 1416.7052 0.0000 0.0000 1744.7801 -7476.9739 296.2258 -9221.7540 -7474.8720 296.2176 -289.8662 -277.8010 30726.7137 -125.4389 -76.8776
TCL: Running FEP window  14: Lambda1 0.65   Lambda2 0.7000000000000001 [dLambda 0.050000000000000044]
TCL: Setting parameter firsttimestep to 0
TCL: Setting parameter alchLambda to 0.65
Info: NONBONDED TABLE R-SQUARED SPACING: 0.0625
Info: NONBONDED TABLE SIZE: 705 POINTS
TCL: Setting parameter alchLambda2 to 0.7000000000000001
Info: NONBONDED TABLE R-SQUARED SPACING: 0.0625
Info: NONBONDED TABLE SIZE: 705 POINTS
TCL: Running for 1500000 steps
ETITLE: TS BOND ANGLE DIHED IMPRP ELECT VDW BOUNDARY MISC KINETIC TOTAL TEMP POTENTIAL TOTALAVG TEMPAVG PRESSURE GPRESSURE VOLUME PRESSAVG GPRESSAVG
ENERGY: 0 2.2981 8.7786 5.0065 0.0000 -10654.5192 1416.7598 0.0000 0.0000 1743.8871 -7477.7892 296.0742 -9221.6762 -7477.7892 296.0742 -344.9043 -265.4774 30726.7137 -344.9043 -265.4774
ENERGY: 300000 1.5573 12.6872 6.5121 0.0000 -10565.3984 1396.9327 0.0000 0.0000 1782.9089 -7364.8001 302.6993 -9147.7091 -7456.8795 298.0796 -364.5692 -277.7406 30900.0625 -282.9036 -216.4503
ENERGY: 600000 3.3690 14.0754 3.3261 0.0000 -10669.8716 1406.8886 0.0000 0.0000 1757.0469 -7485.1655 298.3084 -9242.2124 -7450.8893 298.8393 -463.1471 -379.5908 30438.7105 -307.7341 -247.6547
ENERGY: 900000 1.5504 13.1304 7.0826 0.0000 -10738.0780 1463.1100 0.0000 0.0000 1805.3731 -7447.8314 306.5132 -9253.2046 -7455.7459 298.8729 155.2550 189.9512 30315.9173 -301.8430 -242.3217
ENERGY: 1200000 4.7411 13.5449 5.4481 0.0000 -10507.6652 1286.7748 0.0000 0.0000 1774.7681 -7422.3882 301.3171 -9197.1563 -7452.6833 299.3469 -1271.2781 -1214.3162 30583.0489 -336.3818 -279.6386
ENERGY: 1500000 3.6944 10.0613 4.0871 0.0000 -10711.9782 1498.5574 0.0000 0.0000 1672.1919 -7523.3862 283.9019 -9195.5781 -7452.3294 298.6146 313.8733 421.7067 30745.6794 -289.9590 -233.5515
TCL: Running FEP window  15: Lambda1 0.7000000000000001 Lambda2 0.7500000000000001 [dLambda 0.050000000000000044]
TCL: Setting parameter firsttimestep to 0
TCL: Setting parameter alchLambda to 0.7000000000000001
Info: NONBONDED TABLE R-SQUARED SPACING: 0.0625
Info: NONBONDED TABLE SIZE: 705 POINTS
TCL: Setting parameter alchLambda2 to 0.7500000000000001
Info: NONBONDED TABLE R-SQUARED SPACING: 0.0625
Info: NONBONDED TABLE SIZE: 705 POINTS
TCL: Running for 1500000 steps
ETITLE: TS BOND ANGLE DIHED IMPRP ELECT VDW BOUNDARY MISC KINETIC TOTAL TEMP POTENTIAL TOTALAVG TEMPAVG PRESSURE GPRESSURE VOLUME PRESSAVG GPRESSAVG
ENERGY: 0 3.6944 10.0613 4.0871 0.0000 -10711.9688 1499.4695 0.0000 0.0000 1671.3386 -7523.3179 283.7570 -9194.6565 -7523.3179 283.7570 353.6160 443.7629 30745.6794 353.6160 443.7629
ENERGY: 300000 1.7683 13.3038 4.1072 0.0000 -10624.0966 1418.9378 0.0000 0.0000 1755.4761 -7430.5034 298.0418 -9185.9795 -7450.9791 295.4459 -205.5195 -100.8658 30790.4777 -16.0328 69.0332
ENERGY: 600000 3.7196 6.6184 6.1446 0.0000 -10591.1894 1420.5214 0.0000 0.0000 1752.8866 -7401.2987 297.6021 -9154.1854 -7436.5231 297.5540 -61.8273 -11.9675 30423.1083 -19.2034 56.8216
ENERGY: 900000 1.0405 12.2420 5.6100 0.0000 -10500.8556 1334.2126 0.0000 0.0000 1765.6205 -7382.1300 299.7640 -9147.7505 -7437.0353 298.2881 -835.2061 -763.7883 31185.3494 7.7483 80.5346
ENERGY: 1200000 1.1395 15.1854 5.5858 0.0000 -10692.7554 1422.8779 0.0000 0.0000 1760.9961 -7486.9707 298.9789 -9247.9668 -7442.1583 298.9190 -142.4857 -78.2315 30542.9849 -67.9207 -3.6189
ENERGY: 1500000 1.8295 9.7341 4.6793 0.0000 -10615.3659 1443.7917 0.0000 0.0000 1830.4295 -7324.9017 310.7672 -9155.3312 -7438.3535 300.7613 192.3092 237.0977 30800.5487 -56.0691 8.8798
TCL: Running FEP window  16: Lambda1 0.7500000000000001 Lambda2 0.8000000000000002 [dLambda 0.050000000000000044]
TCL: Setting parameter firsttimestep to 0
TCL: Setting parameter alchLambda to 0.7500000000000001
Info: NONBONDED TABLE R-SQUARED SPACING: 0.0625
Info: NONBONDED TABLE SIZE: 705 POINTS
TCL: Setting parameter alchLambda2 to 0.8000000000000002
Info: NONBONDED TABLE R-SQUARED SPACING: 0.0625
Info: NONBONDED TABLE SIZE: 705 POINTS
TCL: Running for 1500000 steps
ETITLE: TS BOND ANGLE DIHED IMPRP ELECT VDW BOUNDARY MISC KINETIC TOTAL TEMP POTENTIAL TOTALAVG TEMPAVG PRESSURE GPRESSURE VOLUME PRESSAVG GPRESSAVG
ENERGY: 0 1.8295 9.7341 4.6793 0.0000 -10615.4249 1444.3386 0.0000 0.0000 1829.5387 -7325.3047 310.6160 -9154.8434 -7325.3047 310.6160 171.1630 256.4549 30800.5487 171.1630 256.4549
ENERGY: 300000 3.7016 11.7365 7.5938 0.0000 -10633.5827 1390.4483 0.0000 0.0000 1796.3249 -7423.7775 304.9770 -9220.1024 -7418.9240 303.3906 -308.9507 -228.5329 30266.2839 8.6324 62.5421
ENERGY: 600000 0.9845 11.8921 4.7595 0.0000 -10768.3553 1451.7588 0.0000 0.0000 1763.5280 -7535.4323 299.4088 -9298.9603 -7470.9961 300.2286 -71.7352 34.8654 30334.0388 -71.1602 -7.8985
ENERGY: 900000 2.3927 10.1373 6.2916 0.0000 -10725.4124 1468.4424 0.0000 0.0000 1812.2870 -7425.8615 307.6870 -9238.1484 -7457.5208 301.0846 296.9079 417.9673 30378.2592 -81.2624 -17.3832
ENERGY: 1200000 1.9554 9.6790 7.9759 0.0000 -10739.4529 1446.3862 0.0000 0.0000 1820.3396 -7453.1168 309.0542 -9273.4564 -7459.9767 301.5553 156.0980 196.3097 30231.7696 -43.7074 18.8500
ENERGY: 1500000 1.4629 13.7754 3.3733 0.0000 -10658.4316 1472.7848 0.0000 0.0000 1761.2024 -7405.8329 299.0140 -9167.0353 -7446.2584 301.4974 499.6630 545.9263 30419.0318 -15.9057 50.0220
TCL: Running FEP window  17: Lambda1 0.8000000000000002 Lambda2 0.8500000000000002 [dLambda 0.050000000000000044]
TCL: Setting parameter firsttimestep to 0
TCL: Setting parameter alchLambda to 0.8000000000000002
Info: NONBONDED TABLE R-SQUARED SPACING: 0.0625
Info: NONBONDED TABLE SIZE: 705 POINTS
TCL: Setting parameter alchLambda2 to 0.8500000000000002
Info: NONBONDED TABLE R-SQUARED SPACING: 0.0625
Info: NONBONDED TABLE SIZE: 705 POINTS
TCL: Running for 1500000 steps
ETITLE: TS BOND ANGLE DIHED IMPRP ELECT VDW BOUNDARY MISC KINETIC TOTAL TEMP POTENTIAL TOTALAVG TEMPAVG PRESSURE GPRESSURE VOLUME PRESSAVG GPRESSAVG
ENERGY: 0 1.4629 13.7754 3.3733 0.0000 -10658.4118 1472.5801 0.0000 0.0000 1760.3220 -7406.8982 298.8645 -9167.2202 -7406.8982 298.8645 469.3127 555.6358 30419.0318 469.3127 555.6358
ENERGY: 300000 2.3076 17.2302 4.2239 0.0000 -10528.4978 1325.0768 0.0000 0.0000 1757.9208 -7421.7385 298.4568 -9179.6593 -7408.3623 299.5630 -781.9363 -753.2941 30693.0285 188.4587 242.2083
ENERGY: 600000 3.5354 12.7994 4.5378 0.0000 -10591.4433 1377.7452 0.0000 0.0000 1757.5065 -7435.3190 298.3865 -9192.8255 -7429.8366 299.4524 -508.7669 -513.4766 30602.8882 80.0397 132.3718
ENERGY: 900000 4.3854 12.0976 5.4763 0.0000 -10689.5515 1433.5225 0.0000 0.0000 1734.1465 -7499.9232 294.4205 -9234.0697 -7458.4208 298.5382 -368.2055 -251.8952 30894.1775 -32.0973 32.4256
ENERGY: 1200000 2.9242 9.1530 5.4785 0.0000 -10668.4962 1388.7217 0.0000 0.0000 1781.0834 -7481.1353 302.3893 -9262.2187 -7448.1686 300.4610 -426.1613 -348.6138 30213.7172 -50.6598 13.6383
ENERGY: 1500000 2.9326 11.1997 4.4058 0.0000 -10735.4211 1471.2375 0.0000 0.0000 1752.0736 -7493.5720 297.4641 -9245.6456 -7452.7996 300.8038 -20.2776 60.3471 30645.4093 -111.5448 -53.0284
TCL: Running FEP window  18: Lambda1 0.8500000000000002 Lambda2 0.9000000000000002 [dLambda 0.050000000000000044]
TCL: Setting parameter firsttimestep to 0
TCL: Setting parameter alchLambda to 0.8500000000000002
Info: NONBONDED TABLE R-SQUARED SPACING: 0.0625
Info: NONBONDED TABLE SIZE: 705 POINTS
TCL: Setting parameter alchLambda2 to 0.9000000000000002
Info: NONBONDED TABLE R-SQUARED SPACING: 0.0625
Info: NONBONDED TABLE SIZE: 705 POINTS
TCL: Running for 1500000 steps
ETITLE: TS BOND ANGLE DIHED IMPRP ELECT VDW BOUNDARY MISC KINETIC TOTAL TEMP POTENTIAL TOTALAVG TEMPAVG PRESSURE GPRESSURE VOLUME PRESSAVG GPRESSAVG
ENERGY: 0 2.9326 11.1997 4.4058 0.0000 -10735.4291 1470.8317 0.0000 0.0000 1751.2153 -7494.8439 297.3184 -9246.0593 -7494.8439 297.3184 -16.2859 63.4554 30645.4093 -16.2859 63.4554
ENERGY: 300000 0.5243 11.0414 5.5711 0.0000 -10582.3192 1407.4344 0.0000 0.0000 1715.0787 -7442.6692 291.1831 -9157.7479 -7500.4639 295.4098 -89.9686 -58.3669 30570.8632 -2.6629 71.1600
ENERGY: 600000 3.6383 11.9452 6.4474 0.0000 -10617.4635 1365.7664 0.0000 0.0000 1778.7832 -7450.8830 301.9988 -9229.6663 -7463.4972 298.0362 -820.4220 -749.0785 30891.2165 -316.1249 -249.7592
ENERGY: 900000 1.2649 18.7344 7.4101 0.0000 -10713.0348 1421.8423 0.0000 0.0000 1759.5706 -7504.2126 298.7369 -9263.7832 -7463.9815 298.6156 -239.4005 -162.3396 30376.3075 -290.0377 -225.5767
ENERGY: 1200000 4.4511 22.2040 4.8194 0.0000 -10628.1465 1384.2691 0.0000 0.0000 1730.8121 -7481.5908 293.8543 -9212.4029 -7453.6619 298.5490 -374.4845 -321.3658 30523.0446 -290.2795 -226.2519
ENERGY: 1500000 2.6080 11.6159 3.2654 0.0000 -10726.8937 1425.9784 0.0000 0.0000 1727.5896 -7555.8364 293.3072 -9283.4260 -7459.2717 298.4228 -446.8987 -403.5479 30563.7464 -241.5142 -174.4592
TCL: Running FEP window  19: Lambda1 0.9000000000000002 Lambda2 0.9500000000000003 [dLambda 0.050000000000000044]
TCL: Setting parameter firsttimestep to 0
TCL: Setting parameter alchLambda to 0.9000000000000002
Info: NONBONDED TABLE R-SQUARED SPACING: 0.0625
Info: NONBONDED TABLE SIZE: 705 POINTS
TCL: Setting parameter alchLambda2 to 0.9500000000000003
Info: NONBONDED TABLE R-SQUARED SPACING: 0.0625
Info: NONBONDED TABLE SIZE: 705 POINTS
TCL: Running for 1500000 steps
ETITLE: TS BOND ANGLE DIHED IMPRP ELECT VDW BOUNDARY MISC KINETIC TOTAL TEMP POTENTIAL TOTALAVG TEMPAVG PRESSURE GPRESSURE VOLUME PRESSAVG GPRESSAVG
ENERGY: 0 2.6080 11.6159 3.2654 0.0000 -10726.9042 1425.6549 0.0000 0.0000 1726.7354 -7557.0246 293.1622 -9283.7600 -7557.0246 293.1622 -468.8430 -391.7693 30563.7464 -468.8430 -391.7693
ENERGY: 300000 1.5750 9.0754 7.4418 0.0000 -10749.8377 1468.8659 0.0000 0.0000 1784.3263 -7478.5533 302.9399 -9262.8796 -7493.8624 299.9236 531.8122 592.4251 30062.7358 384.0456 449.1656
ENERGY: 600000 3.1855 10.7714 5.2571 0.0000 -10712.8806 1448.5776 0.0000 0.0000 1757.9307 -7487.1583 298.4585 -9245.0890 -7497.3212 299.0110 174.2691 274.3635 30146.9501 242.6352 291.4562
ENERGY: 900000 1.0486 11.9023 4.8695 0.0000 -10744.0840 1486.1280 0.0000 0.0000 1814.6217 -7425.5139 308.0834 -9240.1356 -7473.7709 300.1726 523.9480 585.9494 30285.8635 160.9005 214.6182
ENERGY: 1200000 2.0658 13.9367 5.3182 0.0000 -10796.4581 1505.6634 0.0000 0.0000 1753.0122 -7516.4617 297.6234 -9269.4739 -7481.2210 299.7867 482.9304 531.7825 30264.3140 84.6943 140.5949
ENERGY: 1500000 2.0902 14.5132 4.4943 0.0000 -10566.5852 1456.0839 0.0000 0.0000 1718.3728 -7371.0308 291.7424 -9089.4036 -7469.6697 299.0487 689.6573 672.1353 30304.8012 117.2345 172.2359
TCL: Running FEP window  20: Lambda1 0.9500000000000003 Lambda2 1.0    [dLambda 0.04999999999999971]
TCL: Setting parameter firsttimestep to 0
TCL: Setting parameter alchLambda to 0.9500000000000003
Info: NONBONDED TABLE R-SQUARED SPACING: 0.0625
Info: NONBONDED TABLE SIZE: 705 POINTS
TCL: Setting parameter alchLambda2 to 1.0
Info: NONBONDED TABLE R-SQUARED SPACING: 0.0625
Info: NONBONDED TABLE SIZE: 705 POINTS
TCL: Running for 1500000 steps
ETITLE: TS BOND ANGLE DIHED IMPRP ELECT VDW BOUNDARY MISC KINETIC TOTAL TEMP POTENTIAL TOTALAVG TEMPAVG PRESSURE GPRESSURE VOLUME PRESSAVG GPRESSAVG
ENERGY: 0 2.0903 14.5132 4.4943 0.0000 -10566.5946 1457.2787 0.0000 0.0000 1717.4928 -7370.7254 291.5930 -9088.2182 -7370.7254 291.5930 629.3486 702.0036 30304.8012 629.3486 702.0036
ENERGY: 300000 1.9706 12.3630 4.0899 0.0000 -10742.5493 1466.7775 0.0000 0.0000 1755.0918 -7502.2566 297.9765 -9257.3484 -7476.4282 294.5951 236.7184 301.5655 30561.2822 404.6965 433.4641
ENERGY: 600000 3.0020 12.2319 4.9948 0.0000 -10698.9844 1453.6861 0.0000 0.0000 1756.4277 -7468.6419 298.2033 -9225.0696 -7472.9818 296.5684 296.0147 345.1154 30000.4636 195.8460 223.5730
ENERGY: 900000 1.3737 13.5921 5.2572 0.0000 -10695.7621 1414.7849 0.0000 0.0000 1739.0893 -7521.6650 295.2596 -9260.7543 -7489.2534 297.4013 -222.3609 -92.5728 30304.7960 118.6044 167.7465
ENERGY: 1200000 3.2724 11.4261 3.2293 0.0000 -10730.7554 1408.8295 0.0000 0.0000 1734.2013 -7569.7969 294.4298 -9303.9982 -7497.2871 296.1934 -426.3328 -310.9999 30038.6775 0.1806 51.8692
ENERGY: 1500000 2.4428 15.3241 5.6246 0.0000 -10627.1293 1405.1823 0.0000 0.0000 1734.5804 -7463.9751 294.4941 -9198.5555 -7496.3557 296.5811 -577.4641 -476.0699 31142.6474 -10.2280 43.3644
TCL: Exiting due to exit command.
