Info: SIMULATION PARAMETERS:
Info: TIMESTEP               2
Info: NUMBER OF STEPS        0
Info: STEPS PER CYCLE        10
Info: PERIODIC CELL BASIS 1  31.8078 0 0
Info: PERIODIC CELL BASIS 2  0 29.0311 0
Info: PERIODIC CELL BASIS 3  0 0 33.0852
Info: PERIODIC CELL CENTER   0 0 0
Info: WRAPPING WATERS AROUND PERIODIC BOUNDARIES ON OUTPUT.
Info: WRAPPING ALL CLUSTERS AROUND PERIODIC BOUNDARIES ON OUTPUT.
Info: FIRST LDB TIMESTEP     50
Info: LAST LDB TIMESTEP     -1
Info: HOM BACKGROUND SCALING 1
Info: PME BACKGROUND SCALING 1
Info: MIN ATOMS PER PATCH    40
Info: EMPTY PATCH LOAD       40 ATOMS
Info: VELOCITY FILE          mobley_3572203_equil.vel
Info: CENTER OF MASS MOVING INITIALLY? NO
Info: DIELECTRIC             1
Info: EXCLUDE                SCALED ONE-FOUR
Info: 1-4 ELECTROSTATICS SCALED BY 0.833333
Info: MODIFIED 1-4 VDW PARAMETERS WILL BE USED
Info: DCD FILENAME           mobley_3572203_prod.dcd
Info: DCD FREQUENCY          100000
Info: DCD FIRST STEP         100000
Info: DCD FILE WILL CONTAIN UNIT CELL DATA
Info: XST FILENAME           mobley_3572203_prod.xst
Info: XST FREQUENCY          100000
Info: NO VELOCITY DCD OUTPUT
Info: NO FORCE DCD OUTPUT
Info: OUTPUT FILENAME        mobley_3572203_prod
Info: BINARY OUTPUT FILES WILL BE USED
Info: RESTART FILENAME       mobley_3572203_prod.restart
Info: RESTART FREQUENCY      100000
Info: BINARY RESTART FILES WILL BE USED
Info: CUTOFF                 9
Info: PAIRLIST DISTANCE      11
Info: PAIRLIST SHRINK RATE   0.01
Info: PAIRLIST GROW RATE     0.01
Info: PAIRLIST TRIGGER       0.3
Info: PAIRLISTS PER CYCLE    2
Info: PAIRLISTS ENABLED
Info: MARGIN                 2
Info: HYDROGEN GROUP CUTOFF  2.5
Info: PATCH DIMENSION        15.5
Info: ENERGY OUTPUT STEPS    100000
Info: ENERGY EVALUATION STEPS    100000
Info: OUTPUT ENERGY PRECISION 4
Info: CROSSTERM ENERGY INCLUDED IN DIHEDRAL
Info: TIMING OUTPUT STEPS    1000000
Info: PRESSURE OUTPUT STEPS  100000
Info: ALCHEMICAL FEP ON
Info: FEP CURRENT LAMBDA VALUE     0
Info: FEP COMPARISON LAMBDA VALUE  0.05
Info: FEP INTRA-ALCHEMICAL NON-BONDED INTERACTIONS WILL BE RETAINED
Info: FEP INTRA-ALCHEMICAL BONDED INTERACTIONS WILL BE RETAINED
Info: FEP VDW SHIFTING COEFFICIENT 5
Info: FEP ELEC. ACTIVE FOR ANNIHILATED PARTICLES BETWEEN LAMBDA = 0 AND LAMBDA = 0.5
Info: FEP ELEC. ACTIVE FOR EXNIHILATED PARTICLES BETWEEN LAMBDA = 0.5 AND LAMBDA = 1
Info: FEP VDW ACTIVE FOR ANNIHILATED PARTICLES BETWEEN LAMBDA = 0 AND LAMBDA = 1
Info: FEP VDW ACTIVE FOR EXNIHILATED PARTICLES BETWEEN LAMBDA = 0 AND LAMBDA = 1
Info: FEP BOND ACTIVE FOR ANNIHILATED PARTICLES BETWEEN LAMBDA = 1 AND LAMBDA = 1
Info: FEP BOND ACTIVE FOR EXNIHILATED PARTICLES BETWEEN LAMBDA = 0 AND LAMBDA = 0
Info: LANGEVIN DYNAMICS ACTIVE
Info: LANGEVIN TEMPERATURE   300
Info: LANGEVIN USING BBK INTEGRATOR
Info: LANGEVIN DAMPING COEFFICIENT IS 1 INVERSE PS
Info: LANGEVIN DYNAMICS APPLIED TO HYDROGENS
Info: LANGEVIN PISTON PRESSURE CONTROL ACTIVE
Info:        TARGET PRESSURE IS 1.01325 BAR
Info:     OSCILLATION PERIOD IS 50 FS
Info:             DECAY TIME IS 25 FS
Info:     PISTON TEMPERATURE IS 300 K
Info:       PRESSURE CONTROL IS GROUP-BASED
Info:    INITIAL STRAIN RATE IS 0.000259714 0.000259714 0.000259714
Info:       CELL FLUCTUATION IS ISOTROPIC
Info: PARTICLE MESH EWALD (PME) ACTIVE
Info: PME TOLERANCE               1e-06
Info: PME EWALD COEFFICIENT       0.348832
Info: PME INTERPOLATION ORDER     4
Info: PME GRID DIMENSIONS         32 32 36
Info: PME MAXIMUM GRID SPACING    1
Info: PME CALCULATION WILL BE PERFORMED ON GPU
Info: FULL ELECTROSTATIC EVALUATION FREQUENCY      2
Info: USING VERLET I (r-RESPA) MTS SCHEME.
Info: C1 SPLITTING OF LONG RANGE ELECTROSTATICS
Info: PLACING ATOMS IN PATCHES BY HYDROGEN GROUPS
Info: RIGID BONDS TO HYDROGEN : ALL
Info:         ERROR TOLERANCE : 1e-08
Info:          MAX ITERATIONS : 100
Info: RIGID WATER USING SETTLE ALGORITHM
Info: RANDOM NUMBER SEED     1744034278
Info: USE HYDROGEN BONDS?    NO
Info: Using AMBER format force field!
Info: AMBER PARM FILE        mobley_3572203.prmtop
Info: COORDINATE PDB         mobley_3572203.pdb
Info: Exclusions will be read from PARM file!
Info: SCNB (VDW SCALING)     2
Info: USING ARITHMETIC MEAN TO COMBINE L-J SIGMA PARAMETERS
Info: BINARY COORDINATES     mobley_3572203_equil.coor
Info: SUMMARY OF PARAMETERS:
Info: 9 BONDS
Info: 13 ANGLES
Info:   13 HARMONIC
Info:   0 COSINE-BASED
Info: 20 DIHEDRAL
Info: 0 IMPROPER
Info: 0 CROSSTERM
Info: 0 VDW
Info: 36 VDW_PAIRS
Info: 0 NBTHOLE_PAIRS
Info: To read alchdata from file: mobley_3572203.pdb
Info: To read alchflag data from column: 5
Info: STRUCTURE SUMMARY:
Info: 2960 ATOMS
Info: 2959 BONDS
Info: 46 ANGLES
Info: 71 DIHEDRALS
Info: 0 IMPROPERS
Info: 0 CROSSTERMS
Info: 3061 EXCLUSIONS
Info: 2950 RIGID BONDS
Info: ALCH: 0 ATOMS TO DISAPPEAR IN FINAL STATE
Info: ALCH: 26 ATOMS TO APPEAR IN FINAL STATE
Info: 5930 DEGREES OF FREEDOM
Info: 988 HYDROGEN GROUPS
Info: 4 ATOMS IN LARGEST HYDROGEN GROUP
Info: 988 MIGRATION GROUPS
Info: 4 ATOMS IN LARGEST MIGRATION GROUP
Info: TOTAL MASS = 17763.9 amu
Info: TOTAL CHARGE = -9.99831e-05 e
Info: MASS DENSITY = 0.965529 g/cm^3
Info: ATOM DENSITY = 0.0968859 atoms/A^3
Info: ADDED 0 IMPLICIT EXCLUSIONS
Info: NONBONDED TABLE R-SQUARED SPACING: 0.0625
Info: NONBONDED TABLE SIZE: 705 POINTS
Info: REMOVING COM VELOCITY 0.172921 0.131011 -0.147725
Info: Use 3D box decompostion in PME FFT.
Info: Updated CUDA force table with 4096 elements.
Info: Updated CUDA LJ table with 8 x 8 elements.
Info: Found 29 unique exclusion lists needing 100 bytes
TCL: Running for 1500000 steps
ETITLE: TS BOND ANGLE DIHED IMPRP ELECT VDW BOUNDARY MISC KINETIC TOTAL TEMP POTENTIAL TOTALAVG TEMPAVG PRESSURE GPRESSURE VOLUME PRESSAVG GPRESSAVG
ENERGY: 0 2.7346 17.2325 4.8444 0.0000 -10687.2937 1451.3740 0.0000 0.0000 1828.3766 -7382.7315 310.3140 -9211.1082 -7382.7315 310.3140 59.2613 133.7693 30551.3893 59.2613 133.7693
ENERGY: 300000 1.8260 11.3967 7.2716 0.0000 -10714.8853 1472.1577 0.0000 0.0000 1768.3341 -7453.8992 300.1235 -9222.2333 -7441.2541 301.1941 363.9242 402.2023 30154.0968 299.6046 352.3579
ENERGY: 600000 3.9058 9.7229 7.4737 0.0000 -10696.5593 1423.9561 0.0000 0.0000 1789.2712 -7462.2296 303.6770 -9251.5008 -7451.6752 300.6511 -222.8642 -166.5683 30186.2526 204.7301 249.5205
ENERGY: 900000 4.1144 14.2060 6.0758 0.0000 -10701.3838 1425.5848 0.0000 0.0000 1767.6408 -7483.7620 300.0058 -9251.4028 -7447.5704 300.7645 -206.3875 -163.0024 30319.8009 256.9653 309.5447
ENERGY: 1200000 4.4875 11.4561 5.9996 0.0000 -10713.2465 1470.5472 0.0000 0.0000 1707.6993 -7513.0567 289.8325 -9220.7560 -7452.8760 301.0764 227.1939 256.1564 30150.3903 217.2669 271.7985
ENERGY: 1500000 2.7360 23.8640 6.1725 0.0000 -10661.4913 1374.6690 0.0000 0.0000 1735.2351 -7518.8148 294.5059 -9254.0499 -7459.1552 301.3971 -614.4422 -508.1535 30217.5546 117.5141 175.8830
TCL: Running FEP window   2: Lambda1 0.05   Lambda2 0.1    [dLambda 0.05  ]
TCL: Setting parameter firsttimestep to 0
TCL: Setting parameter alchLambda to 0.05
Info: NONBONDED TABLE R-SQUARED SPACING: 0.0625
Info: NONBONDED TABLE SIZE: 705 POINTS
TCL: Setting parameter alchLambda2 to 0.1
Info: NONBONDED TABLE R-SQUARED SPACING: 0.0625
Info: NONBONDED TABLE SIZE: 705 POINTS
TCL: Running for 1500000 steps
ETITLE: TS BOND ANGLE DIHED IMPRP ELECT VDW BOUNDARY MISC KINETIC TOTAL TEMP POTENTIAL TOTALAVG TEMPAVG PRESSURE GPRESSURE VOLUME PRESSAVG GPRESSAVG
ENERGY: 0 2.7360 23.8640 6.1725 0.0000 -10661.4921 1376.8041 0.0000 0.0000 1734.3561 -7517.5595 294.3567 -9251.9155 -7517.5595 294.3567 -571.2896 -496.5882 30217.5546 -571.2896 -496.5882
ENERGY: 300000 1.4688 10.5686 7.4235 0.0000 -10750.9239 1464.6471 0.0000 0.0000 1777.1501 -7489.6657 301.6198 -9266.8158 -7520.5222 296.7203 213.3229 282.5275 30094.4931 -432.7324 -400.3010
ENERGY: 600000 0.6360 19.9165 6.1168 0.0000 -10737.7791 1488.4968 0.0000 0.0000 1725.6535 -7496.9595 292.8797 -9222.6130 -7489.6098 297.8138 660.1415 653.1865 29862.8774 -216.7555 -194.3639
ENERGY: 900000 1.3315 14.0144 8.1241 0.0000 -10595.3353 1390.3192 0.0000 0.0000 1760.0812 -7421.4649 298.7228 -9181.5461 -7472.7105 298.7827 -184.2376 -116.4842 30191.0972 -208.2127 -176.9445
ENERGY: 1200000 3.6629 13.4916 5.4315 0.0000 -10722.5500 1503.2891 0.0000 0.0000 1729.1228 -7467.5523 293.4685 -9196.6750 -7474.7517 298.9002 472.4771 451.0682 30366.3616 -142.5816 -110.7925
ENERGY: 1500000 1.9950 13.1635 6.6556 0.0000 -10847.1944 1609.6600 0.0000 0.0000 1815.4978 -7400.2225 308.1282 -9215.7203 -7464.3988 299.5180 1662.0666 1704.3321 29911.6699 -39.2207 -0.5942
TCL: Running FEP window   3: Lambda1 0.1    Lambda2 0.15000000000000002 [dLambda 0.05000000000000002]
TCL: Setting parameter firsttimestep to 0
TCL: Setting parameter alchLambda to 0.1
Info: NONBONDED TABLE R-SQUARED SPACING: 0.0625
Info: NONBONDED TABLE SIZE: 705 POINTS
TCL: Setting parameter alchLambda2 to 0.15000000000000002
Info: NONBONDED TABLE R-SQUARED SPACING: 0.0625
Info: NONBONDED TABLE SIZE: 705 POINTS
TCL: Running for 1500000 steps
ETITLE: TS BOND ANGLE DIHED IMPRP ELECT VDW BOUNDARY MISC KINETIC TOTAL TEMP POTENTIAL TOTALAVG TEMPAVG PRESSURE GPRESSURE VOLUME PRESSAVG GPRESSAVG
ENERGY: 0 1.9950 13.1635 6.6556 0.0000 -10847.1937 1612.5475 0.0000 0.0000 1814.6115 -7398.2207 307.9778 -9212.8321 -7398.2207 307.9778 1632.9885 1714.4482 29911.6699 1632.9885 1714.4482
ENERGY: 300000 0.8723 14.5180 5.7840 0.0000 -10703.5451 1472.8526 0.0000 0.0000 1777.5372 -7431.9811 301.6855 -9209.5182 -7465.0992 301.0902 586.2585 594.5754 29765.9920 911.7474 958.0389
ENERGY: 600000 2.6244 18.3010 6.6575 0.0000 -10682.7136 1428.1214 0.0000 0.0000 1748.1317 -7478.8776 296.6947 -9227.0093 -7464.0947 300.5014 -132.0534 -94.0052 30335.6379 546.9972 603.5093
ENERGY: 900000 3.6284 9.4273 4.8902 0.0000 -10732.6761 1463.2801 0.0000 0.0000 1716.5115 -7534.9387 291.3281 -9251.4502 -7485.5199 298.3055 100.3750 140.0740 30036.5627 458.2395 503.5091
ENERGY: 1200000 4.3171 9.6627 5.9597 0.0000 -10752.6014 1513.5591 0.0000 0.0000 1819.1037 -7399.9990 308.7402 -9219.1027 -7490.5101 298.9675 745.0017 801.4476 30106.6055 452.9049 495.2853
ENERGY: 1500000 4.1379 12.2259 4.4437 0.0000 -10707.2232 1461.3602 0.0000 0.0000 1763.0470 -7462.0086 299.2262 -9225.0555 -7478.9891 299.2314 148.9503 196.0159 29889.7836 433.1951 475.5469
TCL: Running FEP window   4: Lambda1 0.15000000000000002 Lambda2 0.2    [dLambda 0.04999999999999999]
TCL: Setting parameter firsttimestep to 0
TCL: Setting parameter alchLambda to 0.15000000000000002
Info: NONBONDED TABLE R-SQUARED SPACING: 0.0625
Info: NONBONDED TABLE SIZE: 705 POINTS
TCL: Setting parameter alchLambda2 to 0.2
Info: NONBONDED TABLE R-SQUARED SPACING: 0.0625
Info: NONBONDED TABLE SIZE: 705 POINTS
TCL: Running for 1500000 steps
ETITLE: TS BOND ANGLE DIHED IMPRP ELECT VDW BOUNDARY MISC KINETIC TOTAL TEMP POTENTIAL TOTALAVG TEMPAVG PRESSURE GPRESSURE VOLUME PRESSAVG GPRESSAVG
ENERGY: 0 4.1379 12.2259 4.4437 0.0000 -10707.2230 1461.9217 0.0000 0.0000 1762.1495 -7462.3443 299.0739 -9224.4938 -7462.3443 299.0739 106.8418 200.8812 29889.7836 106.8418 200.8812
ENERGY: 300000 1.9696 13.2187 5.0796 0.0000 -10644.4682 1354.3734 0.0000 0.0000 1709.6312 -7560.1958 290.1604 -9269.8270 -7477.7107 299.5434 -970.9703 -845.3472 30395.1351 -280.7071 -189.0864
ENERGY: 600000 2.6434 11.4589 6.1986 0.0000 -10662.0019 1419.7938 0.0000 0.0000 1749.4781 -7472.4290 296.9232 -9221.9071 -7466.7535 301.4677 -356.6006 -251.8620 30690.9753 -299.6026 -210.4666
ENERGY: 900000 3.8235 10.6683 5.4301 0.0000 -10812.1985 1615.3252 0.0000 0.0000 1749.0966 -7427.8548 296.8585 -9176.9514 -7478.2858 300.0250 1198.9594 1310.7001 30589.9318 -90.8932 5.6201
ENERGY: 1200000 1.2175 11.2988 8.9289 0.0000 -10742.7167 1416.9466 0.0000 0.0000 1815.8555 -7488.4696 308.1889 -9304.3250 -7482.3396 300.4329 -141.8223 -53.2213 29772.7625 -161.3213 -69.9246
ENERGY: 1500000 3.2385 20.3651 5.6798 0.0000 -10729.9315 1444.6082 0.0000 0.0000 1792.2019 -7463.8380 304.1744 -9256.0399 -7479.0015 300.7154 159.8047 201.9576 30066.2326 -154.3124 -66.0506
TCL: Running FEP window   5: Lambda1 0.2    Lambda2 0.25   [dLambda 0.04999999999999999]
TCL: Setting parameter firsttimestep to 0
TCL: Setting parameter alchLambda to 0.2
Info: NONBONDED TABLE R-SQUARED SPACING: 0.0625
Info: NONBONDED TABLE SIZE: 705 POINTS
TCL: Setting parameter alchLambda2 to 0.25
Info: NONBONDED TABLE R-SQUARED SPACING: 0.0625
Info: NONBONDED TABLE SIZE: 705 POINTS
TCL: Running for 1500000 steps
ETITLE: TS BOND ANGLE DIHED IMPRP ELECT VDW BOUNDARY MISC KINETIC TOTAL TEMP POTENTIAL TOTALAVG TEMPAVG PRESSURE GPRESSURE VOLUME PRESSAVG GPRESSAVG
ENERGY: 0 3.2385 20.3651 5.6798 0.0000 -10729.9316 1445.1805 0.0000 0.0000 1791.3049 -7464.1629 304.0221 -9255.4677 -7464.1629 304.0221 116.8660 208.3375 30066.2326 116.8660 208.3375
ENERGY: 300000 3.4094 14.3574 6.8175 0.0000 -10821.4702 1485.8617 0.0000 0.0000 1758.6980 -7552.3263 298.4881 -9311.0243 -7491.9035 301.6354 285.6668 340.7579 29940.3857 255.6388 335.3846
ENERGY: 600000 2.1389 9.7133 6.5174 0.0000 -10742.8808 1519.6793 0.0000 0.0000 1756.5144 -7448.3175 298.1174 -9204.8319 -7477.6510 300.5273 960.5211 1056.5449 29729.3684 370.2485 438.9671
ENERGY: 900000 4.8870 8.2383 6.2870 0.0000 -10776.3331 1477.0255 0.0000 0.0000 1732.7580 -7547.1372 294.0855 -9279.8953 -7487.6399 299.7918 368.0810 429.2453 30085.3350 342.9267 415.5314
ENERGY: 1200000 2.0748 9.4509 7.6780 0.0000 -10687.2024 1405.9773 0.0000 0.0000 1786.3337 -7475.6876 303.1784 -9262.0214 -7475.0806 301.2604 -449.0380 -433.5739 30664.8101 234.4462 302.5649
ENERGY: 1500000 3.5061 10.3352 8.8852 0.0000 -10614.2563 1379.0657 0.0000 0.0000 1702.7086 -7509.7556 288.9855 -9212.4642 -7471.5194 300.9021 -690.0274 -668.7681 30739.4214 215.5111 281.2130
TCL: Running FEP window   6: Lambda1 0.25   Lambda2 0.3    [dLambda 0.04999999999999999]
TCL: Setting parameter firsttimestep to 0
TCL: Setting parameter alchLambda to 0.25
Info: NONBONDED TABLE R-SQUARED SPACING: 0.0625
Info: NONBONDED TABLE SIZE: 705 POINTS
TCL: Setting parameter alchLambda2 to 0.3
Info: NONBONDED TABLE R-SQUARED SPACING: 0.0625
Info: NONBONDED TABLE SIZE: 705 POINTS
TCL: Running for 1500000 steps
ETITLE: TS BOND ANGLE DIHED IMPRP ELECT VDW BOUNDARY MISC KINETIC TOTAL TEMP POTENTIAL TOTALAVG TEMPAVG PRESSURE GPRESSURE VOLUME PRESSAVG GPRESSAVG
ENERGY: 0 3.5061 10.3352 8.8852 0.0000 -10614.2550 1378.8645 0.0000 0.0000 1701.8051 -7510.8590 288.8321 -9212.6642 -7510.8590 288.8321 -740.9636 -662.3036 30739.4214 -740.9636 -662.3036
ENERGY: 300000 5.7410 11.9701 4.9382 0.0000 -10759.9757 1465.2754 0.0000 0.0000 1795.6505 -7476.4005 304.7597 -9272.0510 -7480.1991 296.7261 140.5270 210.0661 29984.8212 -289.9610 -201.6024
ENERGY: 600000 1.9137 12.4298 8.0104 0.0000 -10651.6282 1436.4879 0.0000 0.0000 1796.4214 -7396.3650 304.8905 -9192.7864 -7465.9903 298.2879 -80.6420 6.2752 30706.2512 -172.4351 -82.6157
ENERGY: 900000 4.9434 14.9134 5.5679 0.0000 -10632.8122 1390.0511 0.0000 0.0000 1786.1422 -7431.1941 303.1459 -9217.3363 -7460.8170 300.3428 -530.7763 -475.6605 30393.4535 -121.4989 -45.2325
ENERGY: 1200000 6.2316 10.5634 9.0769 0.0000 -10762.1373 1458.7054 0.0000 0.0000 1742.3236 -7535.2365 295.7090 -9277.5600 -7460.1635 300.9531 10.7302 17.1946 30316.8678 -48.0547 20.4265
ENERGY: 1500000 4.4304 7.9754 11.1587 0.0000 -10724.8337 1448.2611 0.0000 0.0000 1750.6905 -7502.3176 297.1290 -9253.0081 -7463.8253 300.8476 -234.4511 -182.4291 30552.3412 -129.1792 -65.5621
TCL: Running FEP window   7: Lambda1 0.3    Lambda2 0.35   [dLambda 0.04999999999999999]
TCL: Setting parameter firsttimestep to 0
TCL: Setting parameter alchLambda to 0.3
Info: NONBONDED TABLE R-SQUARED SPACING: 0.0625
Info: NONBONDED TABLE SIZE: 705 POINTS
TCL: Setting parameter alchLambda2 to 0.35
Info: NONBONDED TABLE R-SQUARED SPACING: 0.0625
Info: NONBONDED TABLE SIZE: 705 POINTS
TCL: Running for 1500000 steps
ETITLE: TS BOND ANGLE DIHED IMPRP ELECT VDW BOUNDARY MISC KINETIC TOTAL TEMP POTENTIAL TOTALAVG TEMPAVG PRESSURE GPRESSURE VOLUME PRESSAVG GPRESSAVG
ENERGY: 0 4.4304 7.9754 11.1587 0.0000 -10724.8335 1448.1647 0.0000 0.0000 1749.7721 -7503.3322 296.9731 -9253.1042 -7503.3322 296.9731 -251.6599 -175.6837 30552.3412 -251.6599 -175.6837
ENERGY: 300000 2.7356 11.7372 6.7458 0.0000 -10607.0946 1377.0032 0.0000 0.0000 1729.9356 -7478.9372 293.6065 -9208.8728 -7459.9939 296.5565 -582.7718 -488.6642 30526.6068 -252.5348 -196.3777
ENERGY: 600000 3.1986 11.6096 6.6981 0.0000 -10700.5523 1443.3981 0.0000 0.0000 1719.6257 -7516.0222 291.8567 -9235.6479 -7459.8696 297.9466 -214.1111 -157.7728 30448.1983 -206.6574 -150.8585
ENERGY: 900000 2.9905 12.5747 3.9925 0.0000 -10900.7728 1500.2558 0.0000 0.0000 1774.8117 -7606.1476 301.2229 -9380.9592 -7481.6428 297.6372 75.6775 139.5014 30297.2264 -260.1190 -202.9610
ENERGY: 1200000 3.5721 9.6973 6.5376 0.0000 -10725.3930 1474.7494 0.0000 0.0000 1750.1795 -7480.6571 297.0423 -9230.8366 -7493.0875 297.9833 124.5362 239.3158 30674.8080 -200.0759 -143.0767
ENERGY: 1500000 2.7033 10.5245 8.3423 0.0000 -10657.6624 1356.1710 0.0000 0.0000 1788.0678 -7491.8535 303.4727 -9279.9213 -7484.8511 299.3408 -872.3093 -783.6400 30384.9409 -121.3227 -68.9774
TCL: Running FEP window   8: Lambda1 0.35   Lambda2 0.39999999999999997 [dLambda 0.04999999999999999]
TCL: Setting parameter firsttimestep to 0
TCL: Setting parameter alchLambda to 0.35
Info: NONBONDED TABLE R-SQUARED SPACING: 0.0625
Info: NONBONDED TABLE SIZE: 705 POINTS
TCL: Setting parameter alchLambda2 to 0.39999999999999997
Info: NONBONDED TABLE R-SQUARED SPACING: 0.0625
Info: NONBONDED TABLE SIZE: 705 POINTS
TCL: Running for 1500000 steps
ETITLE: TS BOND ANGLE DIHED IMPRP ELECT VDW BOUNDARY MISC KINETIC TOTAL TEMP POTENTIAL TOTALAVG TEMPAVG PRESSURE GPRESSURE VOLUME PRESSAVG GPRESSAVG
ENERGY: 0 2.7033 10.5245 8.3423 0.0000 -10657.6629 1356.2478 0.0000 0.0000 1787.2132 -7492.6319 303.3277 -9279.8451 -7492.6319 303.3277 -851.4364 -778.1449 30384.9409 -851.4364 -778.1449
ENERGY: 300000 2.4395 12.0657 6.9395 0.0000 -10666.7325 1419.7955 0.0000 0.0000 1772.2448 -7453.2476 300.7872 -9225.4923 -7444.8151 303.0509 -100.4878 -33.4373 30477.1320 -372.3793 -280.4841
ENERGY: 600000 2.8034 9.1214 5.4166 0.0000 -10822.8543 1552.5968 0.0000 0.0000 1706.8962 -7546.0199 289.6962 -9252.9161 -7458.8649 300.6191 1030.0606 1019.8371 29864.8905 -189.2222 -123.0984
ENERGY: 900000 2.6405 14.6316 4.0114 0.0000 -10761.1630 1442.8292 0.0000 0.0000 1757.8289 -7539.2213 298.3406 -9297.0502 -7456.0513 300.5129 125.5933 173.4194 29881.7273 8.0651 66.7036
ENERGY: 1200000 4.5724 16.2409 7.4060 0.0000 -10570.5537 1353.3476 0.0000 0.0000 1775.6675 -7413.3193 301.3681 -9188.9868 -7454.3781 300.4796 -813.6052 -694.9443 30791.1333 -31.5624 30.5446
ENERGY: 1500000 2.8943 14.7217 6.5433 0.0000 -10784.4464 1510.3355 0.0000 0.0000 1749.1694 -7500.7821 296.8709 -9249.9515 -7466.1875 300.0538 581.6113 706.7716 30402.0104 0.3905 64.7848
TCL: Running FEP window   9: Lambda1 0.39999999999999997 Lambda2 0.44999999999999996 [dLambda 0.04999999999999999]
TCL: Setting parameter firsttimestep to 0
TCL: Setting parameter alchLambda to 0.39999999999999997
Info: NONBONDED TABLE R-SQUARED SPACING: 0.0625
Info: NONBONDED TABLE SIZE: 705 POINTS
TCL: Setting parameter alchLambda2 to 0.44999999999999996
Info: NONBONDED TABLE R-SQUARED SPACING: 0.0625
Info: NONBONDED TABLE SIZE: 705 POINTS
TCL: Running for 1500000 steps
ETITLE: TS BOND ANGLE DIHED IMPRP ELECT VDW BOUNDARY MISC KINETIC TOTAL TEMP POTENTIAL TOTALAVG TEMPAVG PRESSURE GPRESSURE VOLUME PRESSAVG GPRESSAVG
ENERGY: 0 2.8943 14.7217 6.5433 0.0000 -10784.4476 1511.9249 0.0000 0.0000 1748.2804 -7500.0829 296.7200 -9248.3633 -7500.0829 296.7200 656.4649 725.5530 30402.0104 656.4649 725.5530
ENERGY: 300000 5.2868 10.8977 5.8321 0.0000 -10590.4777 1382.8678 0.0000 0.0000 1784.1582 -7401.4349 302.8092 -9185.5932 -7460.9017 300.1895 -239.3879 -259.3242 30446.9588 -70.8209 -11.2133
ENERGY: 600000 2.0565 9.7709 6.4710 0.0000 -10611.7151 1357.8466 0.0000 0.0000 1812.1426 -7423.4275 307.5587 -9235.5701 -7452.9859 300.3294 -830.2924 -771.9340 30775.3223 -185.1048 -129.9992
ENERGY: 900000 3.2047 11.6183 8.1375 0.0000 -10745.2106 1457.0961 0.0000 0.0000 1755.4219 -7509.7320 297.9320 -9265.1539 -7442.7408 301.2311 9.1286 53.6364 30396.9124 -116.3947 -56.2298
ENERGY: 1200000 5.5729 6.1295 5.4258 0.0000 -10784.2687 1478.9926 0.0000 0.0000 1762.2931 -7525.8548 299.0982 -9288.1478 -7433.0025 301.8742 98.9233 183.5242 30254.6787 -47.0436 22.8555
ENERGY: 1500000 3.1542 15.9036 5.2034 0.0000 -10530.8779 1323.8924 0.0000 0.0000 1809.2818 -7373.4425 307.0732 -9182.7243 -7432.9050 302.3983 -1047.2865 -962.6646 30914.5097 -113.0520 -41.6720
TCL: Running FEP window  10: Lambda1 0.44999999999999996 Lambda2 0.49999999999999994 [dLambda 0.04999999999999999]
TCL: Setting parameter firsttimestep to 0
TCL: Setting parameter alchLambda to 0.44999999999999996
Info: NONBONDED TABLE R-SQUARED SPACING: 0.0625
Info: NONBONDED TABLE SIZE: 705 POINTS
TCL: Setting parameter alchLambda2 to 0.49999999999999994
Info: NONBONDED TABLE R-SQUARED SPACING: 0.0625
Info: NONBONDED TABLE SIZE: 705 POINTS
TCL: Running for 1500000 steps
ETITLE: TS BOND ANGLE DIHED IMPRP ELECT VDW BOUNDARY MISC KINETIC TOTAL TEMP POTENTIAL TOTALAVG TEMPAVG PRESSURE GPRESSURE VOLUME PRESSAVG GPRESSAVG
ENERGY: 0 3.1542 15.9036 5.2034 0.0000 -10530.8783 1323.7647 0.0000 0.0000 1808.4225 -7374.4299 306.9273 -9182.8523 -7374.4299 306.9273 -1033.3130 -950.6914 30914.5097 -1033.3130 -950.6914
ENERGY: 300000 3.2359 11.5014 6.0124 0.0000 -10753.6780 1429.1185 0.0000 0.0000 1812.2890 -7491.5209 307.5836 -9303.8099 -7420.2861 304.5652 -303.9842 -214.3006 30396.2455 -328.0961 -268.4159
ENERGY: 600000 5.1765 8.0788 7.5394 0.0000 -10541.1778 1378.9245 0.0000 0.0000 1761.0374 -7380.4212 298.8851 -9141.4586 -7414.2404 302.8363 45.6445 113.0337 29999.4564 -131.2701 -70.1598
ENERGY: 900000 1.9303 9.0644 8.1639 0.0000 -10684.6546 1419.4945 0.0000 0.0000 1814.3182 -7431.6833 307.9280 -9246.0015 -7434.3087 303.0754 4.2731 41.5110 30039.2271 -42.4089 9.6299
ENERGY: 1200000 2.2019 11.2101 6.3140 0.0000 -10787.7067 1463.5289 0.0000 0.0000 1813.7579 -7490.6939 307.8329 -9304.4518 -7432.7275 304.0110 247.3903 236.9738 29861.4964 83.8499 128.5346
ENERGY: 1500000 2.9837 8.1562 7.2350 0.0000 -10630.0328 1346.7396 0.0000 0.0000 1772.1331 -7492.7852 300.7683 -9264.9183 -7439.9697 303.9096 -1028.5643 -958.8303 30580.4590 -75.7185 -27.5969
TCL: Running FEP window  11: Lambda1 0.49999999999999994 Lambda2 0.5499999999999999 [dLambda 0.04999999999999999]
TCL: Setting parameter firsttimestep to 0
TCL: Setting parameter alchLambda to 0.49999999999999994
Info: NONBONDED TABLE R-SQUARED SPACING: 0.0625
Info: NONBONDED TABLE SIZE: 705 POINTS
TCL: Setting parameter alchLambda2 to 0.5499999999999999
Info: NONBONDED TABLE R-SQUARED SPACING: 0.0625
Info: NONBONDED TABLE SIZE: 705 POINTS
TCL: Running for 1500000 steps
ETITLE: TS BOND ANGLE DIHED IMPRP ELECT VDW BOUNDARY MISC KINETIC TOTAL TEMP POTENTIAL TOTALAVG TEMPAVG PRESSURE GPRESSURE VOLUME PRESSAVG GPRESSAVG
ENERGY: 0 2.9837 8.1562 7.2350 0.0000 -10630.0340 1347.2304 0.0000 0.0000 1771.2792 -7493.1494 300.6233 -9264.4286 -7493.1494 300.6233 -1018.2889 -944.7586 30580.4590 -1018.2889 -944.7586
ENERGY: 300000 2.0986 11.2837 7.0719 0.0000 -10659.0671 1435.1736 0.0000 0.0000 1753.7359 -7449.7034 297.6459 -9203.4393 -7457.9627 303.0554 237.3778 223.9417 30250.2217 -117.6381 -87.2145
ENERGY: 600000 2.3752 9.9019 7.7122 0.0000 -10624.9761 1442.0881 0.0000 0.0000 1709.4619 -7453.4367 290.1317 -9162.8986 -7473.1055 300.8196 99.9747 160.7032 30454.9776 47.4052 103.6198
ENERGY: 900000 4.3556 13.7181 8.0061 0.0000 -10694.6830 1454.1468 0.0000 0.0000 1737.3357 -7477.1207 294.8624 -9214.4565 -7488.2701 298.8066 -166.5395 -150.5007 31010.4007 31.8307 83.3098
ENERGY: 1200000 3.4347 9.1528 5.2292 0.0000 -10858.7570 1539.8955 0.0000 0.0000 1777.2974 -7523.7474 301.6448 -9301.0449 -7493.1144 299.0458 915.2844 973.4070 29731.2134 7.2774 68.3243
ENERGY: 1500000 2.7715 12.8907 8.9427 0.0000 -10686.4488 1479.8998 0.0000 0.0000 1796.7542 -7385.1898 304.9470 -9181.9441 -7481.3786 299.7537 461.3061 486.4605 30267.7123 87.3213 148.9295
TCL: Running FEP window  12: Lambda1 0.5499999999999999 Lambda2 0.6    [dLambda 0.050000000000000044]
TCL: Setting parameter firsttimestep to 0
TCL: Setting parameter alchLambda to 0.5499999999999999
Info: NONBONDED TABLE R-SQUARED SPACING: 0.0625
Info: NONBONDED TABLE SIZE: 705 POINTS
TCL: Setting parameter alchLambda2 to 0.6
Info: NONBONDED TABLE R-SQUARED SPACING: 0.0625
Info: NONBONDED TABLE SIZE: 705 POINTS
TCL: Running for 1500000 steps
ETITLE: TS BOND ANGLE DIHED IMPRP ELECT VDW BOUNDARY MISC KINETIC TOTAL TEMP POTENTIAL TOTALAVG TEMPAVG PRESSURE GPRESSURE VOLUME PRESSAVG GPRESSAVG
ENERGY: 0 2.7715 12.8907 8.9427 0.0000 -10686.3272 1480.5059 0.0000 0.0000 1795.8910 -7385.3253 304.8005 -9181.2163 -7385.3253 304.8005 430.3626 506.8053 30267.7123 430.3626 506.8053
ENERGY: 300000 2.0628 9.8448 8.2169 0.0000 -10733.2417 1473.8144 0.0000 0.0000 1741.7487 -7497.5540 295.6114 -9239.3027 -7453.2382 301.6598 287.9669 350.8944 30314.7029 8.1582 70.0915
ENERGY: 600000 1.6433 6.6701 7.4243 0.0000 -10688.0497 1428.8713 0.0000 0.0000 1760.0939 -7483.3466 298.7250 -9243.4406 -7444.7846 302.4474 164.2365 213.2712 30166.1681 124.0251 185.0156
ENERGY: 900000 2.8346 11.8759 5.5777 0.0000 -10672.7155 1457.5268 0.0000 0.0000 1768.5592 -7426.3413 300.1617 -9194.9005 -7449.1355 302.4146 145.1866 198.9533 30638.1685 171.5933 231.3111
ENERGY: 1200000 4.9420 18.2687 6.3993 0.0000 -10562.1706 1343.6548 0.0000 0.0000 1795.0342 -7393.8716 304.6551 -9188.9058 -7453.9310 301.5100 -659.8627 -636.8674 30557.2492 77.9553 146.3687
ENERGY: 1500000 3.8305 11.8120 5.9007 0.0000 -10720.7044 1524.6841 0.0000 0.0000 1770.7261 -7403.7510 300.5295 -9174.4771 -7456.7399 301.4514 575.4905 675.2406 30847.2606 98.3893 163.3280
TCL: Running FEP window  13: Lambda1 0.6    Lambda2 0.65   [dLambda 0.050000000000000044]
TCL: Setting parameter firsttimestep to 0
TCL: Setting parameter alchLambda to 0.6
Info: NONBONDED TABLE R-SQUARED SPACING: 0.0625
Info: NONBONDED TABLE SIZE: 705 POINTS
TCL: Setting parameter alchLambda2 to 0.65
Info: NONBONDED TABLE R-SQUARED SPACING: 0.0625
Info: NONBONDED TABLE SIZE: 705 POINTS
TCL: Running for 1500000 steps
ETITLE: TS BOND ANGLE DIHED IMPRP ELECT VDW BOUNDARY MISC KINETIC TOTAL TEMP POTENTIAL TOTALAVG TEMPAVG PRESSURE GPRESSURE VOLUME PRESSAVG GPRESSAVG
ENERGY: 0 3.8305 11.8120 5.9007 0.0000 -10720.6519 1524.1937 0.0000 0.0000 1769.8185 -7405.0965 300.3754 -9174.9150 -7405.0965 300.3754 596.0257 678.3378 30847.2606 596.0257 678.3378
ENERGY: 300000 5.5787 10.6944 10.5914 0.0000 -10797.4165 1568.1130 0.0000 0.0000 1784.0905 -7418.3485 302.7977 -9202.4390 -7417.8922 302.6051 1299.2962 1350.8088 30095.5526 430.2179 506.9390
ENERGY: 600000 1.3896 10.5053 8.8598 0.0000 -10803.9349 1511.1711 0.0000 0.0000 1769.5582 -7502.4509 300.3313 -9272.0091 -7445.4319 303.0184 677.3737 744.4565 30215.0068 271.7475 354.0208
ENERGY: 900000 1.8554 12.0927 6.6871 0.0000 -10675.3707 1410.1181 0.0000 0.0000 1739.8421 -7504.7753 295.2878 -9244.6174 -7447.9994 302.1649 -90.7146 -17.5093 30307.9041 174.1874 256.4399
ENERGY: 1200000 5.0958 16.6018 7.0008 0.0000 -10772.6150 1443.7518 0.0000 0.0000 1776.1128 -7524.0522 301.4437 -9300.1649 -7455.8919 301.1620 -440.7470 -382.6878 30476.5585 25.2043 95.1130
ENERGY: 1500000 4.1473 10.6684 5.8620 0.0000 -10737.7793 1466.8897 0.0000 0.0000 1799.9750 -7450.2369 305.4936 -9250.2119 -7467.1259 300.3328 102.3006 101.5141 30629.2671 7.4378 67.2658
TCL: Running FEP window  14: Lambda1 0.65   Lambda2 0.7000000000000001 [dLambda 0.050000000000000044]
TCL: Setting parameter firsttimestep to 0
TCL: Setting parameter alchLambda to 0.65
Info: NONBONDED TABLE R-SQUARED SPACING: 0.0625
Info: NONBONDED TABLE SIZE: 705 POINTS
TCL: Setting parameter alchLambda2 to 0.7000000000000001
Info: NONBONDED TABLE R-SQUARED SPACING: 0.0625
Info: NONBONDED TABLE SIZE: 705 POINTS
TCL: Running for 1500000 steps
ETITLE: TS BOND ANGLE DIHED IMPRP ELECT VDW BOUNDARY MISC KINETIC TOTAL TEMP POTENTIAL TOTALAVG TEMPAVG PRESSURE GPRESSURE VOLUME PRESSAVG GPRESSAVG
ENERGY: 0 4.1473 10.6684 5.8620 0.0000 -10738.2460 1467.9545 0.0000 0.0000 1799.1110 -7450.5028 305.3470 -9249.6138 -7450.5028 305.3470 47.5752 124.2534 30629.2671 47.5752 124.2534
ENERGY: 300000 1.8516 13.2303 6.8170 0.0000 -10792.1440 1503.3398 0.0000 0.0000 1789.9000 -7477.0052 303.7837 -9266.9052 -7449.7003 304.3714 386.8288 394.6031 30753.6354 -32.4127 18.8429
ENERGY: 600000 2.3498 10.0227 5.8147 0.0000 -10766.7466 1456.9703 0.0000 0.0000 1818.0757 -7473.5133 308.5657 -9291.5891 -7469.0344 303.0681 13.7706 113.6118 30499.2666 115.6597 187.0975
ENERGY: 900000 2.1426 7.6189 6.8086 0.0000 -10581.9098 1372.7736 0.0000 0.0000 1774.3011 -7418.2650 301.1362 -9192.5661 -7474.0939 303.0059 -333.3084 -258.3822 30560.9925 -5.0715 57.0457
ENERGY: 1200000 2.3497 8.8361 4.5059 0.0000 -10741.2924 1454.5964 0.0000 0.0000 1750.5392 -7520.4651 297.1033 -9271.0043 -7480.9534 301.6932 188.8935 297.9959 30326.7823 -54.6175 6.6082
ENERGY: 1500000 2.8254 8.7622 9.5155 0.0000 -10720.2568 1419.9034 0.0000 0.0000 1765.2913 -7513.9590 299.6071 -9279.2503 -7482.7411 301.3180 65.8553 118.6864 30032.9663 -79.8788 -23.4067
TCL: Running FEP window  15: Lambda1 0.7000000000000001 Lambda2 0.7500000000000001 [dLambda 0.050000000000000044]
TCL: Setting parameter firsttimestep to 0
TCL: Setting parameter alchLambda to 0.7000000000000001
Info: NONBONDED TABLE R-SQUARED SPACING: 0.0625
Info: NONBONDED TABLE SIZE: 705 POINTS
TCL: Setting parameter alchLambda2 to 0.7500000000000001
Info: NONBONDED TABLE R-SQUARED SPACING: 0.0625
Info: NONBONDED TABLE SIZE: 705 POINTS
TCL: Running for 1500000 steps
ETITLE: TS BOND ANGLE DIHED IMPRP ELECT VDW BOUNDARY MISC KINETIC TOTAL TEMP POTENTIAL TOTALAVG TEMPAVG PRESSURE GPRESSURE VOLUME PRESSAVG GPRESSAVG
ENERGY: 0 2.8254 8.7622 9.5155 0.0000 -10721.5756 1420.2169 0.0000 0.0000 1764.4306 -7515.8249 299.4610 -9280.2555 -7515.8249 299.4610 61.8395 134.2739 30032.9663 61.8395 134.2739
ENERGY: 300000 2.4231 15.5886 7.3515 0.0000 -10684.8213 1440.9062 0.0000 0.0000 1765.3889 -7453.1630 299.6236 -9218.5519 -7459.5066 299.8060 407.7842 493.5649 30142.5461 357.8761 432.2279
ENERGY: 600000 3.5578 13.2153 7.7134 0.0000 -10708.9544 1443.6022 0.0000 0.0000 1704.4183 -7536.4474 289.2757 -9240.8657 -7477.7741 297.1673 -125.0115 -106.0153 30330.9759 138.2374 202.1396
ENERGY: 900000 4.2602 13.4391 6.4921 0.0000 -10680.0800 1491.0863 0.0000 0.0000 1760.6254 -7404.1769 298.8152 -9164.8023 -7468.6309 298.3967 628.1851 680.7048 30597.1037 89.1625 154.1141
ENERGY: 1200000 2.5654 10.4002 6.2755 0.0000 -10699.3719 1449.1060 0.0000 0.0000 1750.7295 -7480.2954 297.1356 -9231.0249 -7460.9566 299.3946 -87.4536 -21.9035 30664.7910 60.5365 131.3202
ENERGY: 1500000 3.7894 9.3948 5.3241 0.0000 -10622.5479 1397.5069 0.0000 0.0000 1712.3189 -7494.2139 290.6165 -9206.5327 -7461.0438 298.7041 -250.6363 -145.2996 30326.5128 -15.1703 55.8609
TCL: Running FEP window  16: Lambda1 0.7500000000000001 Lambda2 0.8000000000000002 [dLambda 0.050000000000000044]
TCL: Setting parameter firsttimestep to 0
TCL: Setting parameter alchLambda to 0.7500000000000001
Info: NONBONDED TABLE R-SQUARED SPACING: 0.0625
Info: NONBONDED TABLE SIZE: 705 POINTS
TCL: Setting parameter alchLambda2 to 0.8000000000000002
Info: NONBONDED TABLE R-SQUARED SPACING: 0.0625
Info: NONBONDED TABLE SIZE: 705 POINTS
TCL: Running for 1500000 steps
ETITLE: TS BOND ANGLE DIHED IMPRP ELECT VDW BOUNDARY MISC KINETIC TOTAL TEMP POTENTIAL TOTALAVG TEMPAVG PRESSURE GPRESSURE VOLUME PRESSAVG GPRESSAVG
ENERGY: 0 3.7894 9.3948 5.3241 0.0000 -10622.8828 1397.1119 0.0000 0.0000 1711.4768 -7495.7858 290.4736 -9207.2626 -7495.7858 290.4736 -220.5640 -133.4209 30326.5128 -220.5640 -133.4209
ENERGY: 300000 2.5987 10.2144 7.9076 0.0000 -10633.7328 1394.2088 0.0000 0.0000 1821.2414 -7397.5617 309.1030 -9218.8032 -7437.4719 300.5679 -180.9779 -153.4195 30352.1119 238.4629 300.9193
ENERGY: 600000 5.9007 9.2740 6.2334 0.0000 -10724.8949 1415.9401 0.0000 0.0000 1735.9992 -7551.5476 294.6356 -9287.5468 -7482.2393 299.6717 -358.4419 -270.3331 30498.4331 161.6206 230.2401
ENERGY: 900000 2.6030 12.2527 6.0968 0.0000 -10823.6515 1488.4876 0.0000 0.0000 1762.1076 -7552.1039 299.0667 -9314.2115 -7480.5572 299.6758 296.7368 394.0913 30318.9288 106.4427 180.3337
ENERGY: 1200000 2.8619 16.2847 6.4260 0.0000 -10673.5841 1423.6740 0.0000 0.0000 1757.4913 -7466.8461 298.2833 -9224.3375 -7475.5227 300.7957 -22.6173 -72.4577 30432.6784 98.8822 155.3499
ENERGY: 1500000 0.9698 12.1619 8.1457 0.0000 -10709.4921 1464.6010 0.0000 0.0000 1746.1077 -7477.5059 296.3512 -9223.6137 -7476.3156 299.4925 419.6686 460.7713 30069.7190 86.0850 145.1400
TCL: Running FEP window  17: Lambda1 0.8000000000000002 Lambda2 0.8500000000000002 [dLambda 0.050000000000000044]
TCL: Setting parameter firsttimestep to 0
TCL: Setting parameter alchLambda to 0.8000000000000002
Info: NONBONDED TABLE R-SQUARED SPACING: 0.0625
Info: NONBONDED TABLE SIZE: 705 POINTS
TCL: Setting parameter alchLambda2 to 0.8500000000000002
Info: NONBONDED TABLE R-SQUARED SPACING: 0.0625
Info: NONBONDED TABLE SIZE: 705 POINTS
TCL: Running for 1500000 steps
ETITLE: TS BOND ANGLE DIHED IMPRP ELECT VDW BOUNDARY MISC KINETIC TOTAL TEMP POTENTIAL TOTALAVG TEMPAVG PRESSURE GPRESSURE VOLUME PRESSAVG GPRESSAVG
ENERGY: 0 0.9698 12.1619 8.1457 0.0000 -10709.8179 1464.3179 0.0000 0.0000 1745.1976 -7479.0250 296.1968 -9224.2226 -7479.0250 296.1968 376.3281 468.6661 30069.7190 376.3281 468.6661
ENERGY: 300000 4.6855 10.0630 5.3918 0.0000 -10722.3959 1472.6837 0.0000 0.0000 1733.1246 -7496.4474 294.1477 -9229.5720 -7450.0867 298.0079 188.5883 234.2046 30513.5465 141.3009 211.8044
ENERGY: 600000 4.1566 7.5274 7.2981 0.0000 -10663.7747 1366.4193 0.0000 0.0000 1724.9169 -7553.4564 292.7547 -9278.3733 -7460.8435 298.1509 -511.2778 -437.7506 30270.1463 50.9857 137.9311
ENERGY: 900000 2.7669 8.4272 4.9913 0.0000 -10828.5719 1554.8486 0.0000 0.0000 1820.5922 -7436.9457 308.9928 -9257.5379 -7467.4197 299.6492 911.5135 1002.4492 30527.1907 152.3195 238.9489
ENERGY: 1200000 2.8639 9.6075 5.0369 0.0000 -10695.2146 1423.5695 0.0000 0.0000 1705.6106 -7548.5260 289.4780 -9254.1366 -7482.7276 298.2978 -230.5474 -129.5408 30626.7572 43.8717 125.9200
ENERGY: 1500000 3.3311 10.3347 6.8540 0.0000 -10594.3942 1377.9968 0.0000 0.0000 1756.9657 -7438.9118 298.1941 -9195.8775 -7479.4192 297.6403 -483.6960 -377.7814 30611.2879 -54.2524 25.6735
TCL: Running FEP window  18: Lambda1 0.8500000000000002 Lambda2 0.9000000000000002 [dLambda 0.050000000000000044]
TCL: Setting parameter firsttimestep to 0
TCL: Setting parameter alchLambda to 0.8500000000000002
Info: NONBONDED TABLE R-SQUARED SPACING: 0.0625
Info: NONBONDED TABLE SIZE: 705 POINTS
TCL: Setting parameter alchLambda2 to 0.9000000000000002
Info: NONBONDED TABLE R-SQUARED SPACING: 0.0625
Info: NONBONDED TABLE SIZE: 705 POINTS
TCL: Running for 1500000 steps
ETITLE: TS BOND ANGLE DIHED IMPRP ELECT VDW BOUNDARY MISC KINETIC TOTAL TEMP POTENTIAL TOTALAVG TEMPAVG PRESSURE GPRESSURE VOLUME PRESSAVG GPRESSAVG
ENERGY: 0 3.3312 10.3347 6.8540 0.0000 -10595.3794 1377.7822 0.0000 0.0000 1756.0981 -7440.9792 298.0468 -9197.0774 -7440.9792 298.0468 -458.6452 -366.6839 30611.2879 -458.6452 -366.6839
ENERGY: 300000 4.1338 11.6273 4.9764 0.0000 -10648.7549 1366.7736 0.0000 0.0000 1785.4249 -7475.8189 303.0242 -9261.2439 -7489.9788 300.2845 -511.3766 -428.4638 30608.7395 64.8702 172.2832
ENERGY: 600000 3.2565 7.9867 7.9369 0.0000 -10620.3456 1371.8136 0.0000 0.0000 1770.0025 -7459.3494 300.4067 -9229.3518 -7478.3642 300.5557 -162.0520 -186.4880 30540.8370 5.4154 72.0618
ENERGY: 900000 4.5819 7.2756 7.3492 0.0000 -10678.0158 1431.9585 0.0000 0.0000 1805.6437 -7421.2068 306.4557 -9226.8505 -7465.6400 301.4215 37.2557 81.8500 30316.9174 18.2819 91.7054
ENERGY: 1200000 2.7263 7.0997 5.5811 0.0000 -10700.4534 1426.1128 0.0000 0.0000 1771.4824 -7487.4511 300.6578 -9258.9335 -7468.2751 300.4017 -225.1795 -82.1715 30759.4151 -54.9343 25.3805
ENERGY: 1500000 5.6980 11.3073 8.2577 0.0000 -10876.9666 1543.1150 0.0000 0.0000 1753.0892 -7555.4994 297.5361 -9308.5886 -7472.8756 300.0834 584.7425 596.9614 30551.4477 -46.6730 30.8653
TCL: Running FEP window  19: Lambda1 0.9000000000000002 Lambda2 0.9500000000000003 [dLambda 0.050000000000000044]
TCL: Setting parameter firsttimestep to 0
TCL: Setting parameter alchLambda to 0.9000000000000002
Info: NONBONDED TABLE R-SQUARED SPACING: 0.0625
Info: NONBONDED TABLE SIZE: 705 POINTS
TCL: Setting parameter alchLambda2 to 0.9500000000000003
Info: NONBONDED TABLE R-SQUARED SPACING: 0.0625
Info: NONBONDED TABLE SIZE: 705 POINTS
TCL: Running for 1500000 steps
ETITLE: TS BOND ANGLE DIHED IMPRP ELECT VDW BOUNDARY MISC KINETIC TOTAL TEMP POTENTIAL TOTALAVG TEMPAVG PRESSURE GPRESSURE VOLUME PRESSAVG GPRESSAVG
ENERGY: 0 5.6980 11.3073 8.2577 0.0000 -10877.4855 1543.6152 0.0000 0.0000 1752.2074 -7556.3999 297.3865 -9308.6073 -7556.3999 297.3865 545.0229 617.0882 30551.4477 545.0229 617.0882
ENERGY: 300000 2.2034 10.8421 7.6736 0.0000 -10717.9684 1452.7462 0.0000 0.0000 1784.6578 -7459.8453 302.8940 -9244.5031 -7498.1178 299.1306 355.6383 398.0551 30067.7358 299.6835 382.6532
ENERGY: 600000 5.7854 8.0461 5.4118 0.0000 -10811.3365 1576.1735 0.0000 0.0000 1752.8553 -7463.0643 297.4964 -9215.9196 -7489.7496 299.5995 1472.9276 1513.5529 30101.6412 170.8123 226.9812
ENERGY: 900000 0.9953 11.1273 4.7206 0.0000 -10843.5650 1461.5743 0.0000 0.0000 1850.7472 -7514.4003 314.1107 -9365.1475 -7478.0243 301.9856 205.5345 261.5588 30458.8985 92.3176 156.4159
ENERGY: 1200000 3.8092 10.9482 7.9038 0.0000 -10624.6077 1409.1006 0.0000 0.0000 1780.7517 -7412.0942 302.2310 -9192.8459 -7469.6358 301.7534 -254.9607 -252.1229 30751.6301 -1.5402 61.8893
ENERGY: 1500000 4.5682 13.5379 5.5402 0.0000 -10591.6728 1388.8915 0.0000 0.0000 1811.4639 -7367.6710 307.4435 -9179.1350 -7464.0465 301.7516 8.5406 135.4616 30646.4931 -30.0083 38.7522
TCL: Running FEP window  20: Lambda1 0.9500000000000003 Lambda2 1.0    [dLambda 0.04999999999999971]
TCL: Setting parameter firsttimestep to 0
TCL: Setting parameter alchLambda to 0.9500000000000003
Info: NONBONDED TABLE R-SQUARED SPACING: 0.0625
Info: NONBONDED TABLE SIZE: 705 POINTS
TCL: Setting parameter alchLambda2 to 1.0
Info: NONBONDED TABLE R-SQUARED SPACING: 0.0625
Info: NONBONDED TABLE SIZE: 705 POINTS
TCL: Running for 1500000 steps
ETITLE: TS BOND ANGLE DIHED IMPRP ELECT VDW BOUNDARY MISC KINETIC TOTAL TEMP POTENTIAL TOTALAVG TEMPAVG PRESSURE GPRESSURE VOLUME PRESSAVG GPRESSAVG
ENERGY: 0 4.5682 13.5379 5.5402 0.0000 -10593.0550 1390.7435 0.0000 0.0000 1810.5627 -7368.1025 307.2906 -9178.6652 -7368.1025 307.2906 102.2500 174.1370 30646.4931 102.2500 174.1370
ENERGY: 300000 2.1581 11.1049 6.5601 0.0000 -10681.1667 1342.2819 0.0000 0.0000 1781.5748 -7537.4869 302.3707 -9319.0617 -7490.7042 303.2371 -695.5481 -671.2026 30097.8736 183.1792 229.5727
ENERGY: 600000 0.8506 12.1300 4.2771 0.0000 -10586.5034 1332.7463 0.0000 0.0000 1783.1000 -7453.3994 302.6296 -9236.4994 -7479.2044 302.4586 -895.4833 -858.8626 30788.5485 -55.4326 -8.8337
ENERGY: 900000 3.2687 9.3506 6.4163 0.0000 -10734.3133 1463.2550 0.0000 0.0000 1796.3641 -7455.6586 304.8808 -9252.0227 -7483.0572 302.1633 73.1425 179.3318 30585.3111 2.7709 59.4917
ENERGY: 1200000 2.9598 12.3131 4.1301 0.0000 -10741.1377 1498.7626 0.0000 0.0000 1750.4162 -7472.5558 297.0825 -9222.9720 -7473.5735 302.1796 516.7795 544.6173 30476.2215 5.9775 63.8874
ENERGY: 1500000 1.7702 10.8648 6.5712 0.0000 -10648.5078 1411.6672 0.0000 0.0000 1850.7788 -7366.8556 314.1161 -9217.6344 -7456.5478 303.5231 -71.1956 25.6717 30601.1483 -73.6366 -9.3468
TCL: Exiting due to exit command.
