Info: SIMULATION PARAMETERS:
Info: TIMESTEP               2
Info: NUMBER OF STEPS        0
Info: STEPS PER CYCLE        10
Info: PERIODIC CELL BASIS 1  30.8607 0 0
Info: PERIODIC CELL BASIS 2  0 33.767 0
Info: PERIODIC CELL BASIS 3  0 0 29.8611
Info: PERIODIC CELL CENTER   0 0 0
Info: WRAPPING WATERS AROUND PERIODIC BOUNDARIES ON OUTPUT.
Info: WRAPPING ALL CLUSTERS AROUND PERIODIC BOUNDARIES ON OUTPUT.
Info: FIRST LDB TIMESTEP     50
Info: LAST LDB TIMESTEP     -1
Info: HOM BACKGROUND SCALING 1
Info: PME BACKGROUND SCALING 1
Info: MIN ATOMS PER PATCH    40
Info: EMPTY PATCH LOAD       40 ATOMS
Info: VELOCITY FILE          mobley_6060301_equil.vel
Info: CENTER OF MASS MOVING INITIALLY? NO
Info: DIELECTRIC             1
Info: EXCLUDE                SCALED ONE-FOUR
Info: 1-4 ELECTROSTATICS SCALED BY 0.833333
Info: MODIFIED 1-4 VDW PARAMETERS WILL BE USED
Info: DCD FILENAME           mobley_6060301_prod.dcd
Info: DCD FREQUENCY          100000
Info: DCD FIRST STEP         100000
Info: DCD FILE WILL CONTAIN UNIT CELL DATA
Info: XST FILENAME           mobley_6060301_prod.xst
Info: XST FREQUENCY          100000
Info: NO VELOCITY DCD OUTPUT
Info: NO FORCE DCD OUTPUT
Info: OUTPUT FILENAME        mobley_6060301_prod
Info: BINARY OUTPUT FILES WILL BE USED
Info: RESTART FILENAME       mobley_6060301_prod.restart
Info: RESTART FREQUENCY      100000
Info: BINARY RESTART FILES WILL BE USED
Info: CUTOFF                 9
Info: PAIRLIST DISTANCE      11
Info: PAIRLIST SHRINK RATE   0.01
Info: PAIRLIST GROW RATE     0.01
Info: PAIRLIST TRIGGER       0.3
Info: PAIRLISTS PER CYCLE    2
Info: PAIRLISTS ENABLED
Info: MARGIN                 2
Info: HYDROGEN GROUP CUTOFF  2.5
Info: PATCH DIMENSION        15.5
Info: ENERGY OUTPUT STEPS    100000
Info: ENERGY EVALUATION STEPS    100000
Info: OUTPUT ENERGY PRECISION 4
Info: CROSSTERM ENERGY INCLUDED IN DIHEDRAL
Info: TIMING OUTPUT STEPS    1000000
Info: PRESSURE OUTPUT STEPS  100000
Info: ALCHEMICAL FEP ON
Info: FEP CURRENT LAMBDA VALUE     0
Info: FEP COMPARISON LAMBDA VALUE  0.05
Info: FEP INTRA-ALCHEMICAL NON-BONDED INTERACTIONS WILL BE RETAINED
Info: FEP INTRA-ALCHEMICAL BONDED INTERACTIONS WILL BE RETAINED
Info: FEP VDW SHIFTING COEFFICIENT 5
Info: FEP ELEC. ACTIVE FOR ANNIHILATED PARTICLES BETWEEN LAMBDA = 0 AND LAMBDA = 0.5
Info: FEP ELEC. ACTIVE FOR EXNIHILATED PARTICLES BETWEEN LAMBDA = 0.5 AND LAMBDA = 1
Info: FEP VDW ACTIVE FOR ANNIHILATED PARTICLES BETWEEN LAMBDA = 0 AND LAMBDA = 1
Info: FEP VDW ACTIVE FOR EXNIHILATED PARTICLES BETWEEN LAMBDA = 0 AND LAMBDA = 1
Info: FEP BOND ACTIVE FOR ANNIHILATED PARTICLES BETWEEN LAMBDA = 1 AND LAMBDA = 1
Info: FEP BOND ACTIVE FOR EXNIHILATED PARTICLES BETWEEN LAMBDA = 0 AND LAMBDA = 0
Info: LANGEVIN DYNAMICS ACTIVE
Info: LANGEVIN TEMPERATURE   300
Info: LANGEVIN USING BBK INTEGRATOR
Info: LANGEVIN DAMPING COEFFICIENT IS 1 INVERSE PS
Info: LANGEVIN DYNAMICS APPLIED TO HYDROGENS
Info: LANGEVIN PISTON PRESSURE CONTROL ACTIVE
Info:        TARGET PRESSURE IS 1.01325 BAR
Info:     OSCILLATION PERIOD IS 50 FS
Info:             DECAY TIME IS 25 FS
Info:     PISTON TEMPERATURE IS 300 K
Info:       PRESSURE CONTROL IS GROUP-BASED
Info:    INITIAL STRAIN RATE IS 0.000442695 0.000442695 0.000442695
Info:       CELL FLUCTUATION IS ISOTROPIC
Info: PARTICLE MESH EWALD (PME) ACTIVE
Info: PME TOLERANCE               1e-06
Info: PME EWALD COEFFICIENT       0.348832
Info: PME INTERPOLATION ORDER     4
Info: PME GRID DIMENSIONS         32 36 32
Info: PME MAXIMUM GRID SPACING    1
Info: PME CALCULATION WILL BE PERFORMED ON GPU
Info: FULL ELECTROSTATIC EVALUATION FREQUENCY      2
Info: USING VERLET I (r-RESPA) MTS SCHEME.
Info: C1 SPLITTING OF LONG RANGE ELECTROSTATICS
Info: PLACING ATOMS IN PATCHES BY HYDROGEN GROUPS
Info: RIGID BONDS TO HYDROGEN : ALL
Info:         ERROR TOLERANCE : 1e-08
Info:          MAX ITERATIONS : 100
Info: RIGID WATER USING SETTLE ALGORITHM
Info: RANDOM NUMBER SEED     1743977255
Info: USE HYDROGEN BONDS?    NO
Info: Using AMBER format force field!
Info: AMBER PARM FILE        mobley_6060301.prmtop
Info: COORDINATE PDB         mobley_6060301.pdb
Info: Exclusions will be read from PARM file!
Info: SCNB (VDW SCALING)     2
Info: USING ARITHMETIC MEAN TO COMBINE L-J SIGMA PARAMETERS
Info: BINARY COORDINATES     mobley_6060301_equil.coor
Info: SUMMARY OF PARAMETERS:
Info: 7 BONDS
Info: 9 ANGLES
Info:   9 HARMONIC
Info:   0 COSINE-BASED
Info: 7 DIHEDRAL
Info: 0 IMPROPER
Info: 0 CROSSTERM
Info: 0 VDW
Info: 28 VDW_PAIRS
Info: 0 NBTHOLE_PAIRS
Info: To read alchdata from file: mobley_6060301.pdb
Info: To read alchflag data from column: 5
Info: STRUCTURE SUMMARY:
Info: 2974 ATOMS
Info: 2973 BONDS
Info: 39 ANGLES
Info: 57 DIHEDRALS
Info: 0 IMPROPERS
Info: 0 CROSSTERMS
Info: 3063 EXCLUSIONS
Info: 2967 RIGID BONDS
Info: ALCH: 0 ATOMS TO DISAPPEAR IN FINAL STATE
Info: ALCH: 22 ATOMS TO APPEAR IN FINAL STATE
Info: 5955 DEGREES OF FREEDOM
Info: 991 HYDROGEN GROUPS
Info: 4 ATOMS IN LARGEST HYDROGEN GROUP
Info: 991 MIGRATION GROUPS
Info: 4 ATOMS IN LARGEST MIGRATION GROUP
Info: TOTAL MASS = 17828.9 amu
Info: TOTAL CHARGE = -9.9957e-05 e
Info: MASS DENSITY = 0.951437 g/cm^3
Info: ATOM DENSITY = 0.0955733 atoms/A^3
Info: ADDED 0 IMPLICIT EXCLUSIONS
Info: NONBONDED TABLE R-SQUARED SPACING: 0.0625
Info: NONBONDED TABLE SIZE: 705 POINTS
Info: REMOVING COM VELOCITY 0.0352011 -0.0284495 -0.0916632
Info: Use 3D box decompostion in PME FFT.
Info: Updated CUDA force table with 4096 elements.
Info: Updated CUDA LJ table with 7 x 7 elements.
Info: Found 25 unique exclusion lists needing 76 bytes
TCL: Running for 1500000 steps
ETITLE: TS BOND ANGLE DIHED IMPRP ELECT VDW BOUNDARY MISC KINETIC TOTAL TEMP POTENTIAL TOTALAVG TEMPAVG PRESSURE GPRESSURE VOLUME PRESSAVG GPRESSAVG
ENERGY: 0 2.6409 11.5553 4.2026 0.0000 -10658.3477 1394.3076 0.0000 0.0000 1773.4193 -7472.2220 299.7230 -9245.6413 -7472.2220 299.7230 -716.4431 -648.9351 31117.4828 -716.4431 -648.9351
ENERGY: 300000 2.2632 10.3945 2.5557 0.0000 -10721.7636 1410.2797 0.0000 0.0000 1801.1044 -7495.1662 304.4020 -9296.2705 -7514.9961 299.2305 -551.0260 -436.3027 30447.2255 -49.5980 20.3841
ENERGY: 600000 2.1710 13.4262 6.7458 0.0000 -10815.3740 1474.4154 0.0000 0.0000 1794.5685 -7524.0472 303.2974 -9318.6157 -7515.5570 299.8873 188.5743 205.7668 30415.2288 -87.6362 -19.4829
ENERGY: 900000 1.3800 14.2133 2.7983 0.0000 -10943.1089 1571.2858 0.0000 0.0000 1789.1671 -7564.2644 302.3845 -9353.4315 -7521.9903 299.9756 996.1708 997.8477 30118.5389 10.0142 67.3394
ENERGY: 1200000 2.3334 7.1438 3.2166 0.0000 -10764.9495 1437.8286 0.0000 0.0000 1767.1502 -7547.2769 298.6635 -9314.4271 -7526.3279 299.8770 -172.2468 -126.1875 30430.7577 21.8557 77.9636
ENERGY: 1500000 1.1032 13.2283 2.8753 0.0000 -10794.7191 1469.7090 0.0000 0.0000 1764.2228 -7543.5805 298.1687 -9307.8033 -7529.9885 299.6802 172.6219 232.7426 30270.9968 92.4094 147.5346
TCL: Running FEP window   2: Lambda1 0.05   Lambda2 0.1    [dLambda 0.05  ]
TCL: Setting parameter firsttimestep to 0
TCL: Setting parameter alchLambda to 0.05
Info: NONBONDED TABLE R-SQUARED SPACING: 0.0625
Info: NONBONDED TABLE SIZE: 705 POINTS
TCL: Setting parameter alchLambda2 to 0.1
Info: NONBONDED TABLE R-SQUARED SPACING: 0.0625
Info: NONBONDED TABLE SIZE: 705 POINTS
TCL: Running for 1500000 steps
ETITLE: TS BOND ANGLE DIHED IMPRP ELECT VDW BOUNDARY MISC KINETIC TOTAL TEMP POTENTIAL TOTALAVG TEMPAVG PRESSURE GPRESSURE VOLUME PRESSAVG GPRESSAVG
ENERGY: 0 1.1032 13.2283 2.8753 0.0000 -10794.7176 1472.2804 0.0000 0.0000 1763.3538 -7541.8767 298.0218 -9305.2305 -7541.8767 298.0218 148.5004 237.4452 30270.9968 148.5004 237.4452
ENERGY: 300000 3.1028 10.4075 2.4692 0.0000 -10697.6371 1401.8937 0.0000 0.0000 1765.9545 -7513.8094 298.4614 -9279.7639 -7520.7710 295.8950 -179.5696 -162.4450 30460.5762 221.5288 283.3230
ENERGY: 600000 1.6506 12.5173 3.5509 0.0000 -10741.8068 1464.7874 0.0000 0.0000 1791.6847 -7467.6159 302.8100 -9259.3006 -7521.6307 296.4447 -38.8485 -43.5448 31127.3385 -149.2927 -94.1113
ENERGY: 900000 2.2542 10.5334 3.6398 0.0000 -10784.3248 1436.7896 0.0000 0.0000 1773.3186 -7557.7891 299.7060 -9331.1077 -7519.6097 298.3700 -477.2234 -438.2548 30758.8427 -157.2570 -107.6181
ENERGY: 1200000 4.1503 9.9840 3.6244 0.0000 -10817.6516 1455.2987 0.0000 0.0000 1777.7841 -7566.8100 300.4607 -9344.5941 -7515.2744 298.8166 -163.9059 -46.0466 30035.7119 -154.9063 -95.6529
ENERGY: 1500000 4.7503 9.8225 2.4208 0.0000 -10728.3431 1463.2480 0.0000 0.0000 1697.9191 -7550.1824 286.9628 -9248.1015 -7515.9103 297.2949 -46.2220 -30.9926 30886.7505 -251.8095 -190.5479
TCL: Running FEP window   3: Lambda1 0.1    Lambda2 0.15000000000000002 [dLambda 0.05000000000000002]
TCL: Setting parameter firsttimestep to 0
TCL: Setting parameter alchLambda to 0.1
Info: NONBONDED TABLE R-SQUARED SPACING: 0.0625
Info: NONBONDED TABLE SIZE: 705 POINTS
TCL: Setting parameter alchLambda2 to 0.15000000000000002
Info: NONBONDED TABLE R-SQUARED SPACING: 0.0625
Info: NONBONDED TABLE SIZE: 705 POINTS
TCL: Running for 1500000 steps
ETITLE: TS BOND ANGLE DIHED IMPRP ELECT VDW BOUNDARY MISC KINETIC TOTAL TEMP POTENTIAL TOTALAVG TEMPAVG PRESSURE GPRESSURE VOLUME PRESSAVG GPRESSAVG
ENERGY: 0 4.7503 9.8225 2.4208 0.0000 -10728.3433 1466.1042 0.0000 0.0000 1697.0354 -7548.2100 286.8135 -9245.2455 -7548.2100 286.8135 -112.7063 -20.1649 30886.7505 -112.7063 -20.1649
ENERGY: 300000 2.0583 10.7142 4.6209 0.0000 -10837.0152 1459.6370 0.0000 0.0000 1778.8749 -7581.1099 300.6450 -9359.9848 -7545.1048 294.8170 -78.5815 -45.6695 30348.9730 167.6065 236.3910
ENERGY: 600000 1.9838 5.7823 3.5760 0.0000 -10750.4280 1392.0968 0.0000 0.0000 1798.0915 -7548.8977 303.8928 -9346.9892 -7550.9777 297.3806 -285.2193 -183.4711 29799.8772 70.2518 143.6275
ENERGY: 900000 1.7966 10.6620 3.3763 0.0000 -10623.7664 1368.9644 0.0000 0.0000 1748.8717 -7490.0955 295.5742 -9238.9671 -7539.1485 297.4450 -577.3531 -549.5993 30616.4792 -9.1028 51.6651
ENERGY: 1200000 1.4245 8.5725 4.5713 0.0000 -10828.9767 1507.7305 0.0000 0.0000 1746.7310 -7559.9470 295.2124 -9306.6779 -7530.8167 298.1391 226.8885 309.0217 30643.4991 46.2203 115.3752
ENERGY: 1500000 1.3723 8.0283 3.2536 0.0000 -10670.0922 1447.5462 0.0000 0.0000 1735.9837 -7473.9080 293.3960 -9209.8916 -7515.9649 298.3000 321.9564 410.2710 30355.7710 38.1720 102.6809
TCL: Running FEP window   4: Lambda1 0.15000000000000002 Lambda2 0.2    [dLambda 0.04999999999999999]
TCL: Setting parameter firsttimestep to 0
TCL: Setting parameter alchLambda to 0.15000000000000002
Info: NONBONDED TABLE R-SQUARED SPACING: 0.0625
Info: NONBONDED TABLE SIZE: 705 POINTS
TCL: Setting parameter alchLambda2 to 0.2
Info: NONBONDED TABLE R-SQUARED SPACING: 0.0625
Info: NONBONDED TABLE SIZE: 705 POINTS
TCL: Running for 1500000 steps
ETITLE: TS BOND ANGLE DIHED IMPRP ELECT VDW BOUNDARY MISC KINETIC TOTAL TEMP POTENTIAL TOTALAVG TEMPAVG PRESSURE GPRESSURE VOLUME PRESSAVG GPRESSAVG
ENERGY: 0 1.3723 8.0283 3.2536 0.0000 -10670.0911 1447.7764 0.0000 0.0000 1735.1262 -7474.5342 293.2511 -9209.6604 -7474.5342 293.2511 333.6611 414.2870 30355.7710 333.6611 414.2870
ENERGY: 300000 2.1590 6.3364 4.2629 0.0000 -10839.4812 1511.9375 0.0000 0.0000 1792.0128 -7522.7727 302.8654 -9314.7855 -7497.2976 299.4343 643.9365 655.6345 30441.0221 737.9363 773.3900
ENERGY: 600000 0.9445 11.2311 4.3895 0.0000 -10744.4861 1451.2044 0.0000 0.0000 1780.9751 -7495.7415 301.0000 -9276.7165 -7508.3010 296.7507 220.5921 282.5506 30049.9408 413.8214 461.8275
ENERGY: 900000 0.5380 7.9644 2.7090 0.0000 -10783.9902 1502.9171 0.0000 0.0000 1752.9851 -7516.8765 296.2694 -9269.8616 -7494.9521 297.8240 176.0896 228.6190 30818.4680 240.7202 285.6958
ENERGY: 1200000 0.8457 10.5669 3.5833 0.0000 -10687.3114 1455.4484 0.0000 0.0000 1739.2740 -7477.5931 293.9521 -9216.8671 -7488.3949 298.7850 658.1067 722.8031 29947.1299 309.2287 356.9986
ENERGY: 1500000 1.9647 8.5312 3.7908 0.0000 -10823.1032 1507.1535 0.0000 0.0000 1818.7470 -7482.9160 307.3838 -9301.6630 -7478.9667 299.7524 689.6887 777.5840 29874.6368 267.2176 325.2597
TCL: Running FEP window   5: Lambda1 0.2    Lambda2 0.25   [dLambda 0.04999999999999999]
TCL: Setting parameter firsttimestep to 0
TCL: Setting parameter alchLambda to 0.2
Info: NONBONDED TABLE R-SQUARED SPACING: 0.0625
Info: NONBONDED TABLE SIZE: 705 POINTS
TCL: Setting parameter alchLambda2 to 0.25
Info: NONBONDED TABLE R-SQUARED SPACING: 0.0625
Info: NONBONDED TABLE SIZE: 705 POINTS
TCL: Running for 1500000 steps
ETITLE: TS BOND ANGLE DIHED IMPRP ELECT VDW BOUNDARY MISC KINETIC TOTAL TEMP POTENTIAL TOTALAVG TEMPAVG PRESSURE GPRESSURE VOLUME PRESSAVG GPRESSAVG
ENERGY: 0 1.9647 8.5312 3.7908 0.0000 -10823.1040 1507.2392 0.0000 0.0000 1817.8524 -7483.7257 307.2326 -9301.5781 -7483.7257 307.2326 701.8841 782.8191 29874.6368 701.8841 782.8191
ENERGY: 300000 2.1646 13.1099 3.3706 0.0000 -10656.7662 1362.3553 0.0000 0.0000 1767.5498 -7508.2161 298.7310 -9275.7659 -7506.2343 302.1214 -695.3538 -649.1193 30435.1832 -172.6998 -85.2192
ENERGY: 600000 0.8236 11.6439 2.5342 0.0000 -10874.4626 1537.8906 0.0000 0.0000 1784.1299 -7537.4405 301.5332 -9321.5703 -7514.3152 301.6211 842.8738 895.6628 29918.9299 101.4522 169.8475
ENERGY: 900000 2.4115 8.3647 2.2721 0.0000 -10675.0991 1399.9666 0.0000 0.0000 1722.9821 -7539.1021 291.1987 -9262.0841 -7495.7677 301.1352 -680.1242 -538.8984 30769.4731 -66.7369 1.0273
ENERGY: 1200000 2.5812 10.7864 5.2511 0.0000 -10718.5766 1390.5247 0.0000 0.0000 1740.9520 -7568.4811 294.2357 -9309.4331 -7502.3530 300.4699 -505.8107 -459.6003 30571.7360 -54.5786 4.2648
ENERGY: 1500000 2.2119 15.1813 3.7188 0.0000 -10786.7154 1459.3686 0.0000 0.0000 1779.2258 -7527.0090 300.7043 -9306.2347 -7507.9266 299.8754 -83.2355 -16.7029 30623.8890 -48.1160 18.1881
TCL: Running FEP window   6: Lambda1 0.25   Lambda2 0.3    [dLambda 0.04999999999999999]
TCL: Setting parameter firsttimestep to 0
TCL: Setting parameter alchLambda to 0.25
Info: NONBONDED TABLE R-SQUARED SPACING: 0.0625
Info: NONBONDED TABLE SIZE: 705 POINTS
TCL: Setting parameter alchLambda2 to 0.3
Info: NONBONDED TABLE R-SQUARED SPACING: 0.0625
Info: NONBONDED TABLE SIZE: 705 POINTS
TCL: Running for 1500000 steps
ETITLE: TS BOND ANGLE DIHED IMPRP ELECT VDW BOUNDARY MISC KINETIC TOTAL TEMP POTENTIAL TOTALAVG TEMPAVG PRESSURE GPRESSURE VOLUME PRESSAVG GPRESSAVG
ENERGY: 0 2.2119 15.1813 3.7188 0.0000 -10786.7161 1459.4825 0.0000 0.0000 1778.3198 -7527.8017 300.5512 -9306.1216 -7527.8017 300.5512 -90.7069 -12.0984 30623.8890 -90.7069 -12.0984
ENERGY: 300000 3.3494 10.4183 2.6711 0.0000 -10754.9456 1457.1953 0.0000 0.0000 1787.2980 -7494.0135 302.0686 -9281.3115 -7552.3397 296.7357 111.3498 159.8788 30326.3588 -2.2071 66.7064
ENERGY: 600000 0.6446 6.7506 3.3638 0.0000 -10761.3297 1427.2456 0.0000 0.0000 1739.1183 -7584.2068 293.9258 -9323.3251 -7555.1186 295.0005 -169.6809 -115.6728 30217.9389 -83.0874 -29.8060
ENERGY: 900000 0.9980 10.6236 5.7777 0.0000 -10775.2170 1431.6278 0.0000 0.0000 1775.3865 -7550.8033 300.0555 -9326.1898 -7549.0051 295.4158 16.2072 89.9004 29839.4878 -8.5746 59.4831
ENERGY: 1200000 0.8770 17.4740 2.5469 0.0000 -10878.5949 1558.3042 0.0000 0.0000 1787.2842 -7512.1086 302.0663 -9299.3928 -7524.3053 297.1889 865.6594 916.9567 30504.3425 73.9510 139.1499
ENERGY: 1500000 2.6674 11.3444 3.6331 0.0000 -10830.0796 1472.7360 0.0000 0.0000 1811.8888 -7527.8099 306.2247 -9339.6987 -7520.8393 298.5325 -209.5405 -127.1571 30686.6147 66.1805 132.2941
TCL: Running FEP window   7: Lambda1 0.3    Lambda2 0.35   [dLambda 0.04999999999999999]
TCL: Setting parameter firsttimestep to 0
TCL: Setting parameter alchLambda to 0.3
Info: NONBONDED TABLE R-SQUARED SPACING: 0.0625
Info: NONBONDED TABLE SIZE: 705 POINTS
TCL: Setting parameter alchLambda2 to 0.35
Info: NONBONDED TABLE R-SQUARED SPACING: 0.0625
Info: NONBONDED TABLE SIZE: 705 POINTS
TCL: Running for 1500000 steps
ETITLE: TS BOND ANGLE DIHED IMPRP ELECT VDW BOUNDARY MISC KINETIC TOTAL TEMP POTENTIAL TOTALAVG TEMPAVG PRESSURE GPRESSURE VOLUME PRESSAVG GPRESSAVG
ENERGY: 0 2.6674 11.3444 3.6331 0.0000 -10830.0803 1474.1179 0.0000 0.0000 1810.9864 -7527.3310 306.0721 -9338.3174 -7527.3310 306.0721 -201.6440 -115.5281 30686.6147 -201.6440 -115.5281
ENERGY: 300000 1.4951 11.2268 3.0247 0.0000 -10768.4266 1423.5849 0.0000 0.0000 1780.5675 -7548.5276 300.9311 -9329.0951 -7542.0159 303.4252 -463.0269 -407.7305 30705.9390 -400.0573 -334.3630
ENERGY: 600000 2.1565 10.8368 3.0306 0.0000 -10557.3559 1312.6900 0.0000 0.0000 1790.5041 -7438.1378 302.6105 -9228.6419 -7506.7329 303.2017 -1035.3563 -1036.9841 30915.7176 -265.1970 -188.8034
ENERGY: 900000 1.3791 7.7794 3.6528 0.0000 -10713.3850 1388.5115 0.0000 0.0000 1763.1230 -7548.9391 297.9828 -9312.0621 -7508.4013 302.2801 -521.5707 -506.3771 30666.5414 -390.0709 -321.9268
ENERGY: 1200000 1.1534 13.5517 1.8966 0.0000 -10637.5312 1428.3234 0.0000 0.0000 1791.3649 -7401.2411 302.7559 -9192.6060 -7503.6531 301.8353 247.0099 298.5804 30351.2977 -184.8976 -122.0205
ENERGY: 1500000 1.3341 14.1037 2.9159 0.0000 -10751.2320 1404.7067 0.0000 0.0000 1772.6684 -7555.5033 299.5961 -9328.1717 -7503.6884 301.9506 -777.2807 -747.4284 31143.8749 -220.0596 -162.3091
TCL: Running FEP window   8: Lambda1 0.35   Lambda2 0.39999999999999997 [dLambda 0.04999999999999999]
TCL: Setting parameter firsttimestep to 0
TCL: Setting parameter alchLambda to 0.35
Info: NONBONDED TABLE R-SQUARED SPACING: 0.0625
Info: NONBONDED TABLE SIZE: 705 POINTS
TCL: Setting parameter alchLambda2 to 0.39999999999999997
Info: NONBONDED TABLE R-SQUARED SPACING: 0.0625
Info: NONBONDED TABLE SIZE: 705 POINTS
TCL: Running for 1500000 steps
ETITLE: TS BOND ANGLE DIHED IMPRP ELECT VDW BOUNDARY MISC KINETIC TOTAL TEMP POTENTIAL TOTALAVG TEMPAVG PRESSURE GPRESSURE VOLUME PRESSAVG GPRESSAVG
ENERGY: 0 1.3341 14.1037 2.9159 0.0000 -10751.2321 1404.2397 0.0000 0.0000 1771.8378 -7556.8010 299.4557 -9328.6388 -7556.8010 299.4557 -819.4845 -744.6295 31143.8749 -819.4845 -744.6295
ENERGY: 300000 2.2339 7.3492 2.2635 0.0000 -10689.6299 1335.6453 0.0000 0.0000 1793.1234 -7549.0146 303.0531 -9342.1379 -7534.4031 300.1032 -746.0589 -672.6027 30115.4447 -465.4543 -382.2474
ENERGY: 600000 1.5704 9.5634 2.0296 0.0000 -10831.4842 1494.1401 0.0000 0.0000 1752.3320 -7571.8487 296.1590 -9324.1807 -7537.4793 299.0402 152.2882 234.5548 30654.7792 -317.5981 -244.7865
ENERGY: 900000 1.5783 14.3678 3.4327 0.0000 -10733.2034 1453.1833 0.0000 0.0000 1791.5070 -7469.1343 302.7800 -9260.6413 -7510.7301 299.5906 138.4552 209.1704 30365.2365 -405.5105 -341.3297
ENERGY: 1200000 2.0571 12.0991 3.4297 0.0000 -10816.8202 1476.3236 0.0000 0.0000 1801.4294 -7521.4813 304.4569 -9322.9107 -7511.4874 298.9065 73.3014 151.4454 30272.1604 -353.3239 -288.9928
ENERGY: 1500000 1.1430 8.4187 3.4047 0.0000 -10667.9069 1345.6784 0.0000 0.0000 1755.8227 -7553.4395 296.7490 -9309.2622 -7511.1313 298.4244 -611.6707 -614.3793 30236.7695 -364.6501 -308.2541
TCL: Running FEP window   9: Lambda1 0.39999999999999997 Lambda2 0.44999999999999996 [dLambda 0.04999999999999999]
TCL: Setting parameter firsttimestep to 0
TCL: Setting parameter alchLambda to 0.39999999999999997
Info: NONBONDED TABLE R-SQUARED SPACING: 0.0625
Info: NONBONDED TABLE SIZE: 705 POINTS
TCL: Setting parameter alchLambda2 to 0.44999999999999996
Info: NONBONDED TABLE R-SQUARED SPACING: 0.0625
Info: NONBONDED TABLE SIZE: 705 POINTS
TCL: Running for 1500000 steps
ETITLE: TS BOND ANGLE DIHED IMPRP ELECT VDW BOUNDARY MISC KINETIC TOTAL TEMP POTENTIAL TOTALAVG TEMPAVG PRESSURE GPRESSURE VOLUME PRESSAVG GPRESSAVG
ENERGY: 0 1.1430 8.4187 3.4047 0.0000 -10667.9057 1345.6961 0.0000 0.0000 1754.9186 -7554.3247 296.5962 -9309.2433 -7554.3247 296.5962 -701.3292 -608.3210 30236.7695 -701.3292 -608.3210
ENERGY: 300000 1.8953 11.4104 3.1785 0.0000 -10655.4164 1405.5281 0.0000 0.0000 1780.1976 -7453.2066 300.8686 -9233.4042 -7508.7852 298.3447 -172.4733 -155.6881 30553.1501 -176.9149 -131.7610
ENERGY: 600000 1.3625 12.8595 2.2464 0.0000 -10753.4519 1434.7318 0.0000 0.0000 1753.7564 -7548.4953 296.3998 -9302.2517 -7490.5516 298.7702 -4.5986 15.4430 30369.7926 -164.3762 -124.5036
ENERGY: 900000 1.4976 11.9383 3.2160 0.0000 -10749.0882 1443.9130 0.0000 0.0000 1761.3139 -7527.2094 297.6771 -9288.5233 -7505.1825 297.8814 -30.4539 72.9042 30571.9179 -190.7159 -147.6555
ENERGY: 1200000 1.7355 7.7810 4.5209 0.0000 -10702.2133 1400.2215 0.0000 0.0000 1749.2362 -7538.7181 295.6358 -9287.9543 -7509.6950 297.7089 -567.7755 -533.4139 30926.7896 -176.1182 -128.6813
ENERGY: 1500000 2.6346 11.3248 2.1871 0.0000 -10995.8507 1522.8251 0.0000 0.0000 1804.5011 -7652.3780 304.9761 -9456.8792 -7522.8234 298.5370 364.7464 414.2678 29901.4925 -158.1854 -110.8685
TCL: Running FEP window  10: Lambda1 0.44999999999999996 Lambda2 0.49999999999999994 [dLambda 0.04999999999999999]
TCL: Setting parameter firsttimestep to 0
TCL: Setting parameter alchLambda to 0.44999999999999996
Info: NONBONDED TABLE R-SQUARED SPACING: 0.0625
Info: NONBONDED TABLE SIZE: 705 POINTS
TCL: Setting parameter alchLambda2 to 0.49999999999999994
Info: NONBONDED TABLE R-SQUARED SPACING: 0.0625
Info: NONBONDED TABLE SIZE: 705 POINTS
TCL: Running for 1500000 steps
ETITLE: TS BOND ANGLE DIHED IMPRP ELECT VDW BOUNDARY MISC KINETIC TOTAL TEMP POTENTIAL TOTALAVG TEMPAVG PRESSURE GPRESSURE VOLUME PRESSAVG GPRESSAVG
ENERGY: 0 2.6346 11.3248 2.1871 0.0000 -10995.8513 1523.9164 0.0000 0.0000 1803.6353 -7652.1531 304.8298 -9455.7884 -7652.1531 304.8298 352.2542 428.9782 29901.4925 352.2542 428.9782
ENERGY: 300000 2.5168 8.9549 4.3879 0.0000 -10847.9519 1505.5626 0.0000 0.0000 1786.0999 -7540.4298 301.8661 -9326.5298 -7516.5054 303.5033 502.8619 599.7070 30040.0200 211.3503 284.4600
ENERGY: 600000 0.6760 10.8173 3.8105 0.0000 -10642.6029 1351.3073 0.0000 0.0000 1808.5969 -7467.3949 305.6683 -9275.9918 -7497.6872 303.1221 -986.3664 -869.0563 30925.5449 -133.2851 -56.0797
ENERGY: 900000 2.2662 7.3415 1.9523 0.0000 -10674.9258 1442.6686 0.0000 0.0000 1775.3038 -7445.3934 300.0415 -9220.6972 -7495.4073 301.9833 93.0112 129.3345 30575.9472 -263.6397 -198.7723
ENERGY: 1200000 1.5787 8.7432 3.0384 0.0000 -10734.1356 1424.9124 0.0000 0.0000 1751.9853 -7543.8776 296.1005 -9295.8630 -7509.2770 300.8497 -264.0451 -208.7496 30886.9999 -211.7262 -153.1854
ENERGY: 1500000 0.5885 11.8625 3.0256 0.0000 -10756.6908 1496.1427 0.0000 0.0000 1843.6965 -7401.3750 311.6004 -9245.0715 -7492.1875 301.7147 326.2608 409.2478 30911.7223 -150.4705 -91.5030
TCL: Running FEP window  11: Lambda1 0.49999999999999994 Lambda2 0.5499999999999999 [dLambda 0.04999999999999999]
TCL: Setting parameter firsttimestep to 0
TCL: Setting parameter alchLambda to 0.49999999999999994
Info: NONBONDED TABLE R-SQUARED SPACING: 0.0625
Info: NONBONDED TABLE SIZE: 705 POINTS
TCL: Setting parameter alchLambda2 to 0.5499999999999999
Info: NONBONDED TABLE R-SQUARED SPACING: 0.0625
Info: NONBONDED TABLE SIZE: 705 POINTS
TCL: Running for 1500000 steps
ETITLE: TS BOND ANGLE DIHED IMPRP ELECT VDW BOUNDARY MISC KINETIC TOTAL TEMP POTENTIAL TOTALAVG TEMPAVG PRESSURE GPRESSURE VOLUME PRESSAVG GPRESSAVG
ENERGY: 0 0.5885 11.8625 3.0256 0.0000 -10756.6930 1495.7121 0.0000 0.0000 1842.7883 -7402.7159 311.4469 -9245.5043 -7402.7159 311.4469 322.7139 411.6250 30911.7223 322.7139 411.6250
ENERGY: 300000 0.6309 7.4076 5.0358 0.0000 -10738.7410 1445.7624 0.0000 0.0000 1782.6509 -7497.2534 301.2832 -9279.9043 -7484.1795 304.6467 -49.0607 58.1086 30589.8960 19.8830 114.0904
ENERGY: 600000 1.8546 7.0416 2.4983 0.0000 -10773.6064 1466.0082 0.0000 0.0000 1815.1589 -7481.0447 306.7773 -9296.2036 -7477.8201 305.8464 74.7467 127.6379 30749.1218 21.9844 109.6579
ENERGY: 900000 2.1309 7.2372 4.7516 0.0000 -10626.4162 1333.8357 0.0000 0.0000 1790.0195 -7488.4414 302.5286 -9278.4609 -7478.4686 304.0036 -1028.0014 -941.2191 30688.6182 -148.7673 -67.5317
ENERGY: 1200000 2.4203 11.3885 3.3061 0.0000 -10580.9673 1317.3143 0.0000 0.0000 1806.3505 -7440.1878 305.2886 -9246.5383 -7468.8026 304.2254 -969.4874 -986.0370 30568.5249 -177.0622 -108.9311
ENERGY: 1500000 1.1126 8.5410 3.1334 0.0000 -10736.9392 1496.2456 0.0000 0.0000 1743.5914 -7484.3151 294.6818 -9227.9065 -7472.6057 303.1287 659.6949 718.4735 30429.6832 -173.6586 -106.7462
TCL: Running FEP window  12: Lambda1 0.5499999999999999 Lambda2 0.6    [dLambda 0.050000000000000044]
TCL: Setting parameter firsttimestep to 0
TCL: Setting parameter alchLambda to 0.5499999999999999
Info: NONBONDED TABLE R-SQUARED SPACING: 0.0625
Info: NONBONDED TABLE SIZE: 705 POINTS
TCL: Setting parameter alchLambda2 to 0.6
Info: NONBONDED TABLE R-SQUARED SPACING: 0.0625
Info: NONBONDED TABLE SIZE: 705 POINTS
TCL: Running for 1500000 steps
ETITLE: TS BOND ANGLE DIHED IMPRP ELECT VDW BOUNDARY MISC KINETIC TOTAL TEMP POTENTIAL TOTALAVG TEMPAVG PRESSURE GPRESSURE VOLUME PRESSAVG GPRESSAVG
ENERGY: 0 1.1126 8.5410 3.1334 0.0000 -10737.6738 1497.2733 0.0000 0.0000 1742.6920 -7484.9215 294.5298 -9227.6134 -7484.9215 294.5298 650.4167 733.3188 30429.6832 650.4167 733.3188
ENERGY: 300000 0.8891 12.4888 1.6839 0.0000 -10726.1240 1449.9022 0.0000 0.0000 1747.1805 -7513.9795 295.2884 -9261.1600 -7522.0424 297.4144 217.2874 252.3513 30218.9120 335.1044 389.9921
ENERGY: 600000 1.6941 9.3231 2.2386 0.0000 -10716.3306 1497.2152 0.0000 0.0000 1790.6690 -7415.1905 302.6383 -9205.8595 -7503.9637 300.4667 387.9567 529.7862 31073.4356 181.9398 258.8943
ENERGY: 900000 1.3563 9.8550 3.9137 0.0000 -10789.7209 1476.0123 0.0000 0.0000 1741.5247 -7557.0590 294.3325 -9298.5837 -7514.4750 299.1568 51.0845 76.4576 30655.7371 155.0586 218.1108
ENERGY: 1200000 1.4238 10.7347 4.3171 0.0000 -10854.3614 1467.3046 0.0000 0.0000 1807.2838 -7563.2975 305.4464 -9370.5813 -7520.5293 299.2957 8.0845 67.8968 30367.8730 179.3697 243.9915
ENERGY: 1500000 0.5017 7.9792 2.9549 0.0000 -10791.0968 1465.6976 0.0000 0.0000 1723.6282 -7590.3352 291.3079 -9313.9635 -7519.2848 298.3978 137.0286 184.9196 30283.8335 208.9366 268.2315
TCL: Running FEP window  13: Lambda1 0.6    Lambda2 0.65   [dLambda 0.050000000000000044]
TCL: Setting parameter firsttimestep to 0
TCL: Setting parameter alchLambda to 0.6
Info: NONBONDED TABLE R-SQUARED SPACING: 0.0625
Info: NONBONDED TABLE SIZE: 705 POINTS
TCL: Setting parameter alchLambda2 to 0.65
Info: NONBONDED TABLE R-SQUARED SPACING: 0.0625
Info: NONBONDED TABLE SIZE: 705 POINTS
TCL: Running for 1500000 steps
ETITLE: TS BOND ANGLE DIHED IMPRP ELECT VDW BOUNDARY MISC KINETIC TOTAL TEMP POTENTIAL TOTALAVG TEMPAVG PRESSURE GPRESSURE VOLUME PRESSAVG GPRESSAVG
ENERGY: 0 0.5017 7.9792 2.9549 0.0000 -10791.0741 1466.1570 0.0000 0.0000 1722.7607 -7590.7206 291.1613 -9313.4813 -7590.7206 291.1613 104.2927 193.8664 30283.8335 104.2927 193.8664
ENERGY: 300000 1.6663 7.1488 4.3306 0.0000 -10758.3528 1440.7624 0.0000 0.0000 1809.6815 -7494.7632 305.8516 -9304.4447 -7519.1311 300.9901 65.8669 69.7502 30320.2910 -207.3847 -158.4604
ENERGY: 600000 1.3454 9.0357 3.7897 0.0000 -10787.0303 1411.8098 0.0000 0.0000 1758.1976 -7602.8520 297.1504 -9361.0496 -7520.7409 300.9917 -393.0820 -308.6333 30209.8316 -97.2567 -33.0202
ENERGY: 900000 2.4534 10.2103 4.8453 0.0000 -10754.1295 1382.7102 0.0000 0.0000 1766.4443 -7587.4660 298.5442 -9353.9103 -7528.3603 300.1215 -697.6032 -681.6765 30640.3143 -204.9306 -147.5605
ENERGY: 1200000 1.5582 7.1877 4.0800 0.0000 -10602.8497 1334.3244 0.0000 0.0000 1798.9341 -7456.7654 304.0352 -9255.6995 -7524.9358 299.7524 -935.0472 -788.5196 31065.5804 -205.8827 -133.3994
ENERGY: 1500000 3.1534 15.6351 3.3714 0.0000 -10663.8691 1436.2249 0.0000 0.0000 1798.9574 -7406.5268 304.0391 -9205.4842 -7513.7699 300.5390 -222.1294 -138.1551 31048.0418 -149.1463 -77.3588
TCL: Running FEP window  14: Lambda1 0.65   Lambda2 0.7000000000000001 [dLambda 0.050000000000000044]
TCL: Setting parameter firsttimestep to 0
TCL: Setting parameter alchLambda to 0.65
Info: NONBONDED TABLE R-SQUARED SPACING: 0.0625
Info: NONBONDED TABLE SIZE: 705 POINTS
TCL: Setting parameter alchLambda2 to 0.7000000000000001
Info: NONBONDED TABLE R-SQUARED SPACING: 0.0625
Info: NONBONDED TABLE SIZE: 705 POINTS
TCL: Running for 1500000 steps
ETITLE: TS BOND ANGLE DIHED IMPRP ELECT VDW BOUNDARY MISC KINETIC TOTAL TEMP POTENTIAL TOTALAVG TEMPAVG PRESSURE GPRESSURE VOLUME PRESSAVG GPRESSAVG
ENERGY: 0 3.1534 15.6351 3.3714 0.0000 -10663.8740 1436.2168 0.0000 0.0000 1798.0719 -7407.4254 303.8895 -9205.4973 -7407.4254 303.8895 -194.3127 -124.7041 31048.0418 -194.3127 -124.7041
ENERGY: 300000 2.0192 11.3917 5.1191 0.0000 -10679.1050 1407.6319 0.0000 0.0000 1775.5612 -7477.3819 300.0850 -9252.9432 -7493.0419 298.2418 -385.4302 -368.8979 30873.4305 -194.4789 -144.9585
ENERGY: 600000 3.5285 9.4189 5.0038 0.0000 -10711.0802 1423.3378 0.0000 0.0000 1790.0914 -7479.6998 302.5407 -9269.7912 -7504.0333 299.8868 -564.3091 -424.0766 30994.6009 -325.5244 -261.1119
ENERGY: 900000 1.9294 10.5506 3.0867 0.0000 -10682.6804 1412.0565 0.0000 0.0000 1743.9057 -7511.1517 294.7349 -9255.0573 -7513.1617 299.1798 114.8711 88.8076 30219.8375 -251.4082 -196.6232
ENERGY: 1200000 0.3137 8.3156 4.9695 0.0000 -10709.4732 1428.3331 0.0000 0.0000 1735.4733 -7532.0681 293.3098 -9267.5413 -7516.0059 297.9610 23.6816 98.4178 30363.9337 -174.0805 -107.2793
ENERGY: 1500000 1.9366 10.3509 3.7215 0.0000 -10897.5959 1542.7581 0.0000 0.0000 1812.5685 -7526.2605 306.3395 -9338.8289 -7521.9375 299.3314 753.8732 743.9182 30348.7283 -146.0764 -82.9061
TCL: Running FEP window  15: Lambda1 0.7000000000000001 Lambda2 0.7500000000000001 [dLambda 0.050000000000000044]
TCL: Setting parameter firsttimestep to 0
TCL: Setting parameter alchLambda to 0.7000000000000001
Info: NONBONDED TABLE R-SQUARED SPACING: 0.0625
Info: NONBONDED TABLE SIZE: 705 POINTS
TCL: Setting parameter alchLambda2 to 0.7500000000000001
Info: NONBONDED TABLE R-SQUARED SPACING: 0.0625
Info: NONBONDED TABLE SIZE: 705 POINTS
TCL: Running for 1500000 steps
ETITLE: TS BOND ANGLE DIHED IMPRP ELECT VDW BOUNDARY MISC KINETIC TOTAL TEMP POTENTIAL TOTALAVG TEMPAVG PRESSURE GPRESSURE VOLUME PRESSAVG GPRESSAVG
ENERGY: 0 1.9366 10.3509 3.7215 0.0000 -10898.2672 1542.2291 0.0000 0.0000 1811.6677 -7528.3616 306.1873 -9340.0292 -7528.3616 306.1873 649.1650 744.3391 30348.7283 649.1650 744.3391
ENERGY: 300000 2.2225 11.8513 3.3162 0.0000 -10635.7488 1350.4027 0.0000 0.0000 1710.5704 -7557.3856 289.1010 -9267.9560 -7541.9849 297.8749 -716.3462 -668.7260 30583.7552 -354.9286 -271.0138
ENERGY: 600000 1.2541 7.6943 2.4382 0.0000 -10804.4001 1508.5497 0.0000 0.0000 1727.5619 -7556.9019 291.9727 -9284.4639 -7548.1032 294.9869 346.4277 360.5783 30795.2989 -37.6333 45.3998
ENERGY: 900000 1.1743 8.3880 1.8767 0.0000 -10598.9907 1316.6018 0.0000 0.0000 1821.5182 -7449.4317 307.8521 -9270.9500 -7541.3587 296.5422 -925.1124 -895.3084 30782.0785 -181.3550 -105.2040
ENERGY: 1200000 1.3447 10.6084 3.4949 0.0000 -10692.1068 1453.7737 0.0000 0.0000 1756.5671 -7466.3180 296.8748 -9222.8850 -7534.3723 296.4711 49.7319 182.5095 30869.2667 -130.5451 -57.7860
ENERGY: 1500000 1.3548 11.3149 4.7487 0.0000 -10789.9061 1460.4579 0.0000 0.0000 1720.4416 -7591.5882 290.7693 -9312.0298 -7544.0076 295.5022 -1.8460 133.5044 30278.2962 -103.7572 -29.5538
TCL: Running FEP window  16: Lambda1 0.7500000000000001 Lambda2 0.8000000000000002 [dLambda 0.050000000000000044]
TCL: Setting parameter firsttimestep to 0
TCL: Setting parameter alchLambda to 0.7500000000000001
Info: NONBONDED TABLE R-SQUARED SPACING: 0.0625
Info: NONBONDED TABLE SIZE: 705 POINTS
TCL: Setting parameter alchLambda2 to 0.8000000000000002
Info: NONBONDED TABLE R-SQUARED SPACING: 0.0625
Info: NONBONDED TABLE SIZE: 705 POINTS
TCL: Running for 1500000 steps
ETITLE: TS BOND ANGLE DIHED IMPRP ELECT VDW BOUNDARY MISC KINETIC TOTAL TEMP POTENTIAL TOTALAVG TEMPAVG PRESSURE GPRESSURE VOLUME PRESSAVG GPRESSAVG
ENERGY: 0 1.3548 11.3149 4.7487 0.0000 -10790.0314 1460.9370 0.0000 0.0000 1719.5675 -7592.1085 290.6216 -9311.6759 -7592.1085 290.6216 76.8465 150.1601 30278.2962 76.8465 150.1601
ENERGY: 300000 4.0835 11.8638 4.8353 0.0000 -10845.5673 1542.5213 0.0000 0.0000 1741.7898 -7540.4736 294.3773 -9282.2634 -7527.1755 295.9079 981.7297 1006.9440 30435.3323 94.3941 131.5187
ENERGY: 600000 0.9213 8.2329 2.2491 0.0000 -10787.2768 1455.5221 0.0000 0.0000 1779.0035 -7541.3479 300.6668 -9320.3514 -7516.2187 298.1170 -213.5508 -129.5543 30821.4230 135.2530 183.8253
ENERGY: 900000 2.0423 10.5432 3.4633 0.0000 -10860.3374 1534.6206 0.0000 0.0000 1800.1154 -7509.5525 304.2349 -9309.6679 -7521.6166 298.3108 472.9713 572.4933 30520.6795 237.1842 293.6653
ENERGY: 1200000 2.3503 7.6708 3.2810 0.0000 -10779.3267 1408.4797 0.0000 0.0000 1830.7522 -7526.7927 309.4127 -9357.5449 -7529.1370 299.8863 -310.1374 -264.4329 30641.3549 103.7131 161.2907
ENERGY: 1500000 1.5409 13.7039 3.1362 0.0000 -10669.6167 1401.5819 0.0000 0.0000 1838.9690 -7410.6847 310.8014 -9249.6537 -7511.3312 301.9869 -65.1938 -38.3563 30466.4795 82.2877 138.1083
TCL: Running FEP window  17: Lambda1 0.8000000000000002 Lambda2 0.8500000000000002 [dLambda 0.050000000000000044]
TCL: Setting parameter firsttimestep to 0
TCL: Setting parameter alchLambda to 0.8000000000000002
Info: NONBONDED TABLE R-SQUARED SPACING: 0.0625
Info: NONBONDED TABLE SIZE: 705 POINTS
TCL: Setting parameter alchLambda2 to 0.8500000000000002
Info: NONBONDED TABLE R-SQUARED SPACING: 0.0625
Info: NONBONDED TABLE SIZE: 705 POINTS
TCL: Running for 1500000 steps
ETITLE: TS BOND ANGLE DIHED IMPRP ELECT VDW BOUNDARY MISC KINETIC TOTAL TEMP POTENTIAL TOTALAVG TEMPAVG PRESSURE GPRESSURE VOLUME PRESSAVG GPRESSAVG
ENERGY: 0 1.5409 13.7039 3.1362 0.0000 -10671.0734 1403.6507 0.0000 0.0000 1838.0950 -7410.9466 310.6537 -9249.0416 -7410.9466 310.6537 -81.7950 -7.5921 30466.4795 -81.7950 -7.5921
ENERGY: 300000 2.4561 11.9478 4.9307 0.0000 -10674.5946 1345.9245 0.0000 0.0000 1807.1202 -7502.2153 305.4187 -9309.3355 -7437.3747 306.9652 -964.7243 -956.3617 30814.1331 -255.9335 -199.7344
ENERGY: 600000 1.7314 9.2177 3.8170 0.0000 -10684.4303 1429.3618 0.0000 0.0000 1778.8806 -7461.4217 300.6460 -9240.3023 -7469.6943 303.4261 72.8166 198.5284 30476.8902 -64.0825 -1.7067
ENERGY: 900000 0.4513 7.7974 3.9702 0.0000 -10795.7631 1480.4558 0.0000 0.0000 1801.0075 -7502.0808 304.3856 -9303.0883 -7479.3109 302.9055 132.4032 154.1070 30685.0709 -17.7791 42.0890
ENERGY: 1200000 2.3276 12.4521 2.5709 0.0000 -10770.9530 1427.8479 0.0000 0.0000 1711.7829 -7613.9716 289.3059 -9325.7545 -7498.0501 301.3128 -218.0301 -69.8540 30167.7360 -27.9459 40.1079
ENERGY: 1500000 0.8162 10.3523 2.8254 0.0000 -10561.4763 1351.4971 0.0000 0.0000 1808.2361 -7387.7493 305.6073 -9195.9854 -7494.3250 301.0826 -459.5699 -408.3938 30993.0817 -140.0814 -73.2389
TCL: Running FEP window  18: Lambda1 0.8500000000000002 Lambda2 0.9000000000000002 [dLambda 0.050000000000000044]
TCL: Setting parameter firsttimestep to 0
TCL: Setting parameter alchLambda to 0.8500000000000002
Info: NONBONDED TABLE R-SQUARED SPACING: 0.0625
Info: NONBONDED TABLE SIZE: 705 POINTS
TCL: Setting parameter alchLambda2 to 0.9000000000000002
Info: NONBONDED TABLE R-SQUARED SPACING: 0.0625
Info: NONBONDED TABLE SIZE: 705 POINTS
TCL: Running for 1500000 steps
ETITLE: TS BOND ANGLE DIHED IMPRP ELECT VDW BOUNDARY MISC KINETIC TOTAL TEMP POTENTIAL TOTALAVG TEMPAVG PRESSURE GPRESSURE VOLUME PRESSAVG GPRESSAVG
ENERGY: 0 0.8162 10.3523 2.8254 0.0000 -10562.7695 1352.1021 0.0000 0.0000 1807.3111 -7389.3624 305.4510 -9196.6736 -7389.3624 305.4510 -467.3825 -390.6066 30993.0817 -467.3825 -390.6066
ENERGY: 300000 1.8460 10.0607 2.8588 0.0000 -10653.0428 1372.2919 0.0000 0.0000 1710.6545 -7555.3308 289.1152 -9265.9853 -7462.2421 302.0746 -442.0365 -401.8118 30555.0708 -231.7148 -151.6818
ENERGY: 600000 4.6259 10.2599 2.6554 0.0000 -10686.8753 1422.3438 0.0000 0.0000 1745.4730 -7501.5173 294.9998 -9246.9903 -7462.5211 301.3975 38.5526 132.2220 30459.3381 -239.7674 -158.6830
ENERGY: 900000 2.1767 11.9952 4.3778 0.0000 -10633.2174 1393.3079 0.0000 0.0000 1749.0216 -7472.3383 295.5996 -9221.3599 -7470.3174 301.4939 -146.3936 -156.5947 30580.8612 -119.6450 -53.4716
ENERGY: 1200000 1.8380 14.0098 4.2356 0.0000 -10749.8694 1444.8199 0.0000 0.0000 1749.6926 -7535.2736 295.7130 -9284.9662 -7481.0923 300.5324 17.3952 76.6237 30588.4191 -94.0025 -22.2788
ENERGY: 1500000 2.2811 11.7916 3.0777 0.0000 -10795.2770 1482.2867 0.0000 0.0000 1731.0056 -7564.8344 292.5547 -9295.8400 -7495.8734 299.7723 231.9507 242.4734 30495.7918 -9.8309 56.2265
TCL: Running FEP window  19: Lambda1 0.9000000000000002 Lambda2 0.9500000000000003 [dLambda 0.050000000000000044]
TCL: Setting parameter firsttimestep to 0
TCL: Setting parameter alchLambda to 0.9000000000000002
Info: NONBONDED TABLE R-SQUARED SPACING: 0.0625
Info: NONBONDED TABLE SIZE: 705 POINTS
TCL: Setting parameter alchLambda2 to 0.9500000000000003
Info: NONBONDED TABLE R-SQUARED SPACING: 0.0625
Info: NONBONDED TABLE SIZE: 705 POINTS
TCL: Running for 1500000 steps
ETITLE: TS BOND ANGLE DIHED IMPRP ELECT VDW BOUNDARY MISC KINETIC TOTAL TEMP POTENTIAL TOTALAVG TEMPAVG PRESSURE GPRESSURE VOLUME PRESSAVG GPRESSAVG
ENERGY: 0 2.2811 11.7916 3.0777 0.0000 -10796.8515 1483.6723 0.0000 0.0000 1730.1604 -7565.8684 292.4119 -9296.0289 -7565.8684 292.4119 174.2891 266.4442 30495.7918 174.2891 266.4442
ENERGY: 300000 1.8520 11.8388 5.4414 0.0000 -10606.1031 1317.6913 0.0000 0.0000 1729.5081 -7539.7715 292.3016 -9269.2796 -7541.3301 293.8501 -1244.2622 -1105.4893 30942.8226 -498.6198 -396.7197
ENERGY: 600000 1.2571 18.2040 5.0897 0.0000 -10776.3816 1434.6293 0.0000 0.0000 1778.1241 -7539.0774 300.5181 -9317.2015 -7533.3419 297.6758 -349.4867 -261.2772 30938.6008 -225.7336 -131.6666
ENERGY: 900000 1.8203 6.8534 2.8743 0.0000 -10724.2411 1451.6029 0.0000 0.0000 1763.3784 -7497.7119 298.0260 -9261.0902 -7529.2467 298.1071 425.6036 498.7428 29977.3423 -134.6545 -54.9692
ENERGY: 1200000 1.6347 11.1087 2.3199 0.0000 -10808.5478 1455.8158 0.0000 0.0000 1754.2922 -7583.3765 296.4903 -9337.6687 -7520.7626 298.3029 -50.1569 56.8399 30478.0588 -47.3784 25.2028
ENERGY: 1500000 2.1915 11.1034 4.4327 0.0000 -10759.9295 1485.0405 0.0000 0.0000 1754.4293 -7502.7322 296.5135 -9257.1614 -7520.2733 298.5493 606.3486 636.3792 30152.4102 -9.8744 55.8731
TCL: Running FEP window  20: Lambda1 0.9500000000000003 Lambda2 1.0    [dLambda 0.04999999999999971]
TCL: Setting parameter firsttimestep to 0
TCL: Setting parameter alchLambda to 0.9500000000000003
Info: NONBONDED TABLE R-SQUARED SPACING: 0.0625
Info: NONBONDED TABLE SIZE: 705 POINTS
TCL: Setting parameter alchLambda2 to 1.0
Info: NONBONDED TABLE R-SQUARED SPACING: 0.0625
Info: NONBONDED TABLE SIZE: 705 POINTS
TCL: Running for 1500000 steps
ETITLE: TS BOND ANGLE DIHED IMPRP ELECT VDW BOUNDARY MISC KINETIC TOTAL TEMP POTENTIAL TOTALAVG TEMPAVG PRESSURE GPRESSURE VOLUME PRESSAVG GPRESSAVG
ENERGY: 0 2.1915 11.1034 4.4327 0.0000 -10761.1814 1486.4063 0.0000 0.0000 1753.5527 -7503.4948 296.3654 -9257.0475 -7503.4948 296.3654 579.7737 667.5506 30152.4102 579.7737 667.5506
ENERGY: 300000 1.7111 9.3277 3.2919 0.0000 -10604.9605 1324.8701 0.0000 0.0000 1767.9334 -7497.8264 298.7958 -9265.7597 -7496.5694 300.8700 -919.9344 -948.5248 30720.0531 -99.1860 -62.3666
ENERGY: 600000 6.1702 10.6191 2.7615 0.0000 -10629.9826 1318.4110 0.0000 0.0000 1830.2853 -7461.7356 309.3338 -9292.0209 -7493.1270 302.3553 -1139.8428 -1080.2846 30816.3474 -125.8153 -85.5424
ENERGY: 900000 0.5935 8.6381 2.3688 0.0000 -10766.9636 1425.7825 0.0000 0.0000 1771.9205 -7557.6602 299.4697 -9329.5807 -7497.2589 301.2338 -141.1133 -139.7366 30499.4135 -115.6163 -77.1386
ENERGY: 1200000 2.0109 18.8886 3.8102 0.0000 -10832.2098 1493.8769 0.0000 0.0000 1805.7431 -7507.8801 305.1860 -9313.6232 -7502.6617 301.5996 448.2182 533.6976 30265.5176 -145.1138 -95.8799
ENERGY: 1500000 1.8037 7.1253 3.1532 0.0000 -10745.6156 1441.2499 0.0000 0.0000 1704.7857 -7587.4978 288.1233 -9292.2834 -7511.3615 300.2252 132.3788 183.5621 30465.6512 -83.0526 -41.9140
TCL: Exiting due to exit command.
