Info: SIMULATION PARAMETERS:
Info: TIMESTEP               2
Info: NUMBER OF STEPS        0
Info: STEPS PER CYCLE        10
Info: PERIODIC CELL BASIS 1  32.2599 0 0
Info: PERIODIC CELL BASIS 2  0 30.2039 0
Info: PERIODIC CELL BASIS 3  0 0 31.6471
Info: PERIODIC CELL CENTER   0 0 0
Info: WRAPPING WATERS AROUND PERIODIC BOUNDARIES ON OUTPUT.
Info: WRAPPING ALL CLUSTERS AROUND PERIODIC BOUNDARIES ON OUTPUT.
Info: FIRST LDB TIMESTEP     50
Info: LAST LDB TIMESTEP     -1
Info: HOM BACKGROUND SCALING 1
Info: PME BACKGROUND SCALING 1
Info: MIN ATOMS PER PATCH    40
Info: EMPTY PATCH LOAD       40 ATOMS
Info: VELOCITY FILE          mobley_7829570_equil.vel
Info: CENTER OF MASS MOVING INITIALLY? NO
Info: DIELECTRIC             1
Info: EXCLUDE                SCALED ONE-FOUR
Info: 1-4 ELECTROSTATICS SCALED BY 0.833333
Info: MODIFIED 1-4 VDW PARAMETERS WILL BE USED
Info: DCD FILENAME           mobley_7829570_prod.dcd
Info: DCD FREQUENCY          100000
Info: DCD FIRST STEP         100000
Info: DCD FILE WILL CONTAIN UNIT CELL DATA
Info: XST FILENAME           mobley_7829570_prod.xst
Info: XST FREQUENCY          100000
Info: NO VELOCITY DCD OUTPUT
Info: NO FORCE DCD OUTPUT
Info: OUTPUT FILENAME        mobley_7829570_prod
Info: BINARY OUTPUT FILES WILL BE USED
Info: RESTART FILENAME       mobley_7829570_prod.restart
Info: RESTART FREQUENCY      100000
Info: BINARY RESTART FILES WILL BE USED
Info: CUTOFF                 9
Info: PAIRLIST DISTANCE      11
Info: PAIRLIST SHRINK RATE   0.01
Info: PAIRLIST GROW RATE     0.01
Info: PAIRLIST TRIGGER       0.3
Info: PAIRLISTS PER CYCLE    2
Info: PAIRLISTS ENABLED
Info: MARGIN                 2
Info: HYDROGEN GROUP CUTOFF  2.5
Info: PATCH DIMENSION        15.5
Info: ENERGY OUTPUT STEPS    100000
Info: ENERGY EVALUATION STEPS    100000
Info: OUTPUT ENERGY PRECISION 4
Info: CROSSTERM ENERGY INCLUDED IN DIHEDRAL
Info: TIMING OUTPUT STEPS    1000000
Info: PRESSURE OUTPUT STEPS  100000
Info: ALCHEMICAL FEP ON
Info: FEP CURRENT LAMBDA VALUE     1
Info: FEP COMPARISON LAMBDA VALUE  0.95
Info: FEP INTRA-ALCHEMICAL NON-BONDED INTERACTIONS WILL BE RETAINED
Info: FEP INTRA-ALCHEMICAL BONDED INTERACTIONS WILL BE RETAINED
Info: FEP VDW SHIFTING COEFFICIENT 5
Info: FEP ELEC. ACTIVE FOR ANNIHILATED PARTICLES BETWEEN LAMBDA = 0 AND LAMBDA = 0.5
Info: FEP ELEC. ACTIVE FOR EXNIHILATED PARTICLES BETWEEN LAMBDA = 0.5 AND LAMBDA = 1
Info: FEP VDW ACTIVE FOR ANNIHILATED PARTICLES BETWEEN LAMBDA = 0 AND LAMBDA = 1
Info: FEP VDW ACTIVE FOR EXNIHILATED PARTICLES BETWEEN LAMBDA = 0 AND LAMBDA = 1
Info: FEP BOND ACTIVE FOR ANNIHILATED PARTICLES BETWEEN LAMBDA = 1 AND LAMBDA = 1
Info: FEP BOND ACTIVE FOR EXNIHILATED PARTICLES BETWEEN LAMBDA = 0 AND LAMBDA = 0
Info: LANGEVIN DYNAMICS ACTIVE
Info: LANGEVIN TEMPERATURE   300
Info: LANGEVIN USING BBK INTEGRATOR
Info: LANGEVIN DAMPING COEFFICIENT IS 1 INVERSE PS
Info: LANGEVIN DYNAMICS APPLIED TO HYDROGENS
Info: LANGEVIN PISTON PRESSURE CONTROL ACTIVE
Info:        TARGET PRESSURE IS 1.01325 BAR
Info:     OSCILLATION PERIOD IS 50 FS
Info:             DECAY TIME IS 25 FS
Info:     PISTON TEMPERATURE IS 300 K
Info:       PRESSURE CONTROL IS GROUP-BASED
Info:    INITIAL STRAIN RATE IS 0.000150213 0.000150213 0.000150213
Info:       CELL FLUCTUATION IS ISOTROPIC
Info: PARTICLE MESH EWALD (PME) ACTIVE
Info: PME TOLERANCE               1e-06
Info: PME EWALD COEFFICIENT       0.348832
Info: PME INTERPOLATION ORDER     4
Info: PME GRID DIMENSIONS         36 32 32
Info: PME MAXIMUM GRID SPACING    1
Info: PME CALCULATION WILL BE PERFORMED ON GPU
Info: FULL ELECTROSTATIC EVALUATION FREQUENCY      2
Info: USING VERLET I (r-RESPA) MTS SCHEME.
Info: C1 SPLITTING OF LONG RANGE ELECTROSTATICS
Info: PLACING ATOMS IN PATCHES BY HYDROGEN GROUPS
Info: RIGID BONDS TO HYDROGEN : ALL
Info:         ERROR TOLERANCE : 1e-08
Info:          MAX ITERATIONS : 100
Info: RIGID WATER USING SETTLE ALGORITHM
Info: RANDOM NUMBER SEED     1744107017
Info: USE HYDROGEN BONDS?    NO
Info: Using AMBER format force field!
Info: AMBER PARM FILE        mobley_7829570.prmtop
Info: COORDINATE PDB         mobley_7829570.pdb
Info: Exclusions will be read from PARM file!
Info: SCNB (VDW SCALING)     2
Info: USING ARITHMETIC MEAN TO COMBINE L-J SIGMA PARAMETERS
Info: BINARY COORDINATES     mobley_7829570_equil.coor
Info: SUMMARY OF PARAMETERS:
Info: 13 BONDS
Info: 18 ANGLES
Info:   18 HARMONIC
Info:   0 COSINE-BASED
Info: 11 DIHEDRAL
Info: 0 IMPROPER
Info: 0 CROSSTERM
Info: 0 VDW
Info: 55 VDW_PAIRS
Info: 0 NBTHOLE_PAIRS
Info: To read alchdata from file: mobley_7829570.pdb
Info: To read alchflag data from column: 5
Info: STRUCTURE SUMMARY:
Info: 2979 ATOMS
Info: 2979 BONDS
Info: 69 ANGLES
Info: 99 DIHEDRALS
Info: 0 IMPROPERS
Info: 0 CROSSTERMS
Info: 3135 EXCLUSIONS
Info: 2956 RIGID BONDS
Info: ALCH: 0 ATOMS TO DISAPPEAR IN FINAL STATE
Info: ALCH: 39 ATOMS TO APPEAR IN FINAL STATE
Info: 5981 DEGREES OF FREEDOM
Info: 1003 HYDROGEN GROUPS
Info: 4 ATOMS IN LARGEST HYDROGEN GROUP
Info: 1003 MIGRATION GROUPS
Info: 4 ATOMS IN LARGEST MIGRATION GROUP
Info: TOTAL MASS = 17991 amu
Info: TOTAL CHARGE = 1.30385e-08 e
Info: MASS DENSITY = 0.968843 g/cm^3
Info: ATOM DENSITY = 0.0966074 atoms/A^3
Info: ADDED 0 IMPLICIT EXCLUSIONS
Info: NONBONDED TABLE R-SQUARED SPACING: 0.0625
Info: NONBONDED TABLE SIZE: 705 POINTS
Info: REMOVING COM VELOCITY 0.0705919 0.0945814 0.00788062
Info: Use 3D box decompostion in PME FFT.
Info: Updated CUDA force table with 4096 elements.
Info: Updated CUDA LJ table with 10 x 10 elements.
Info: Found 40 unique exclusion lists needing 212 bytes
TCL: Running for 1500000 steps
ETITLE: TS BOND ANGLE DIHED IMPRP ELECT VDW BOUNDARY MISC KINETIC TOTAL TEMP POTENTIAL TOTALAVG TEMPAVG PRESSURE GPRESSURE VOLUME PRESSAVG GPRESSAVG
ENERGY: 0 8.8166 9.7905 19.5650 0.0000 -10609.9342 1382.2682 0.0000 0.0000 1835.1333 -7354.3607 308.8049 -9189.4940 -7354.3607 308.8049 -171.8756 -102.3556 30836.1576 -171.8756 -102.3556
ENERGY: 300000 11.5098 17.2798 21.4172 0.0000 -10548.2030 1303.5397 0.0000 0.0000 1820.1571 -7374.2994 306.2848 -9194.4566 -7411.9914 305.9115 -806.9633 -738.1064 30715.6466 -130.7287 -75.2275
ENERGY: 600000 8.8374 15.8835 19.9457 0.0000 -10615.2699 1351.1895 0.0000 0.0000 1817.5652 -7401.8485 305.8487 -9219.4137 -7436.8874 305.8611 -670.7940 -602.9936 30457.4380 -95.7263 -42.0711
ENERGY: 900000 6.4631 15.1503 20.7057 0.0000 -10765.1391 1442.0949 0.0000 0.0000 1801.5781 -7479.1471 303.1584 -9280.7251 -7451.9035 304.5724 32.1290 57.2515 30820.0653 -117.1872 -63.8689
ENERGY: 1200000 7.2673 13.2827 21.6362 0.0000 -10614.6641 1350.9213 0.0000 0.0000 1780.4730 -7441.0836 299.6070 -9221.5566 -7471.0965 303.1530 -477.5102 -436.8415 30534.1746 -211.4904 -150.4694
ENERGY: 1500000 6.3848 21.6632 19.6410 0.0000 -10637.9399 1394.9721 0.0000 0.0000 1787.8047 -7407.4742 300.8407 -9195.2789 -7464.0976 302.0029 -308.6093 -300.2688 31142.7384 -178.3268 -122.3834
TCL: Running FEP window   2: Lambda1 0.95   Lambda2 0.8999999999999999 [dLambda -0.050000000000000044]
TCL: Setting parameter firsttimestep to 0
TCL: Setting parameter alchLambda to 0.95
Info: NONBONDED TABLE R-SQUARED SPACING: 0.0625
Info: NONBONDED TABLE SIZE: 705 POINTS
TCL: Setting parameter alchLambda2 to 0.8999999999999999
Info: NONBONDED TABLE R-SQUARED SPACING: 0.0625
Info: NONBONDED TABLE SIZE: 705 POINTS
TCL: Running for 1500000 steps
ETITLE: TS BOND ANGLE DIHED IMPRP ELECT VDW BOUNDARY MISC KINETIC TOTAL TEMP POTENTIAL TOTALAVG TEMPAVG PRESSURE GPRESSURE VOLUME PRESSAVG GPRESSAVG
ENERGY: 0 6.3848 21.6632 19.6410 0.0000 -10636.9659 1395.8422 0.0000 0.0000 1786.9109 -7406.5239 300.6903 -9193.4347 -7406.5239 300.6903 -390.1090 -310.6916 31142.7384 -390.1090 -310.6916
ENERGY: 300000 5.1965 18.7909 19.3442 0.0000 -10723.9220 1430.0160 0.0000 0.0000 1808.8761 -7441.6984 304.3865 -9250.5744 -7424.6867 303.8102 224.3466 318.7571 30696.1412 -117.8339 -49.7007
ENERGY: 600000 10.3451 14.7037 24.3374 0.0000 -10821.8633 1485.9129 0.0000 0.0000 1730.2831 -7556.2811 291.1614 -9286.5643 -7462.5817 301.9292 102.9557 170.1673 30837.6228 -190.1790 -129.8196
ENERGY: 900000 12.1183 18.3745 17.5511 0.0000 -10828.5091 1443.1806 0.0000 0.0000 1740.9805 -7596.3041 292.9614 -9337.2845 -7474.5921 300.4943 -301.7148 -270.2905 30722.6325 -137.0400 -83.6852
ENERGY: 1200000 7.6195 12.1590 20.2520 0.0000 -10559.1812 1317.8250 0.0000 0.0000 1833.4278 -7367.8979 308.5179 -9201.3257 -7464.6823 301.0437 -854.5430 -850.1587 31391.9614 -198.5136 -148.4684
ENERGY: 1500000 8.2960 18.8458 24.2708 0.0000 -10721.7590 1434.8216 0.0000 0.0000 1799.2366 -7436.2882 302.7644 -9235.5249 -7461.4147 301.4009 116.2463 191.5250 30383.7420 -164.4303 -108.9504
TCL: Running FEP window   3: Lambda1 0.8999999999999999 Lambda2 0.8499999999999999 [dLambda -0.050000000000000044]
TCL: Setting parameter firsttimestep to 0
TCL: Setting parameter alchLambda to 0.8999999999999999
Info: NONBONDED TABLE R-SQUARED SPACING: 0.0625
Info: NONBONDED TABLE SIZE: 705 POINTS
TCL: Setting parameter alchLambda2 to 0.8499999999999999
Info: NONBONDED TABLE R-SQUARED SPACING: 0.0625
Info: NONBONDED TABLE SIZE: 705 POINTS
TCL: Running for 1500000 steps
ETITLE: TS BOND ANGLE DIHED IMPRP ELECT VDW BOUNDARY MISC KINETIC TOTAL TEMP POTENTIAL TOTALAVG TEMPAVG PRESSURE GPRESSURE VOLUME PRESSAVG GPRESSAVG
ENERGY: 0 8.2960 18.8458 24.2708 0.0000 -10721.3295 1435.5352 0.0000 0.0000 1798.3274 -7436.0544 302.6114 -9234.3818 -7436.0544 302.6114 91.2736 178.7886 30383.7420 91.2736 178.7886
ENERGY: 300000 8.2090 18.3583 17.5696 0.0000 -10732.6851 1469.0235 0.0000 0.0000 1786.2713 -7433.2534 300.5827 -9219.5247 -7453.7071 300.7309 192.3448 299.8017 30775.0686 345.4295 427.6589
ENERGY: 600000 10.4385 14.3604 16.4267 0.0000 -10837.7782 1513.3859 0.0000 0.0000 1728.3718 -7554.7948 290.8397 -9283.1665 -7460.1866 297.8085 520.7377 604.7770 30733.6742 238.1772 317.5744
ENERGY: 900000 7.9844 24.2075 18.2573 0.0000 -10765.2313 1449.1357 0.0000 0.0000 1736.0015 -7529.6449 292.1236 -9265.6464 -7463.7215 297.9762 13.0617 38.8571 30687.1752 91.8001 158.6397
ENERGY: 1200000 7.7834 9.3134 21.1694 0.0000 -10670.7980 1402.2499 0.0000 0.0000 1749.5760 -7480.7060 294.4079 -9230.2820 -7464.3693 297.8454 -170.0072 -137.7118 30648.0186 84.9467 140.6587
ENERGY: 1500000 7.4742 17.3732 17.7060 0.0000 -10560.0638 1353.7069 0.0000 0.0000 1811.8803 -7351.9231 304.8920 -9163.8035 -7456.5759 298.8834 -157.0155 -91.2845 30332.1069 72.6272 132.3242
TCL: Running FEP window   4: Lambda1 0.8499999999999999 Lambda2 0.7999999999999998 [dLambda -0.050000000000000044]
TCL: Setting parameter firsttimestep to 0
TCL: Setting parameter alchLambda to 0.8499999999999999
Info: NONBONDED TABLE R-SQUARED SPACING: 0.0625
Info: NONBONDED TABLE SIZE: 705 POINTS
TCL: Setting parameter alchLambda2 to 0.7999999999999998
Info: NONBONDED TABLE R-SQUARED SPACING: 0.0625
Info: NONBONDED TABLE SIZE: 705 POINTS
TCL: Running for 1500000 steps
ETITLE: TS BOND ANGLE DIHED IMPRP ELECT VDW BOUNDARY MISC KINETIC TOTAL TEMP POTENTIAL TOTALAVG TEMPAVG PRESSURE GPRESSURE VOLUME PRESSAVG GPRESSAVG
ENERGY: 0 7.4742 17.3732 17.7060 0.0000 -10559.6382 1353.7302 0.0000 0.0000 1810.9698 -7352.3848 304.7388 -9163.3546 -7352.3848 304.7388 -189.7532 -117.8251 30332.1069 -189.7532 -117.8251
ENERGY: 300000 12.1239 22.6976 18.0103 0.0000 -10797.0386 1474.2125 0.0000 0.0000 1804.1930 -7465.8012 303.5985 -9269.9942 -7420.3818 305.3553 150.5751 205.3337 30893.4342 -48.0164 12.7048
ENERGY: 600000 11.9415 20.9239 17.5875 0.0000 -10610.0822 1347.5612 0.0000 0.0000 1763.3274 -7448.7409 296.7218 -9212.0682 -7439.5130 301.9965 -408.5129 -467.8748 31016.2232 5.0143 39.5698
ENERGY: 900000 10.5106 17.0566 21.9307 0.0000 -10677.4136 1369.8365 0.0000 0.0000 1816.9447 -7441.1345 305.7442 -9258.0792 -7438.3175 302.1975 -753.4621 -724.8525 31100.9615 51.4541 94.5212
ENERGY: 1200000 8.9302 14.0627 24.1409 0.0000 -10738.6617 1446.0901 0.0000 0.0000 1749.1202 -7496.3175 294.3312 -9245.4378 -7443.9428 301.8337 5.2988 104.0516 30726.0283 77.0947 127.7340
ENERGY: 1500000 6.7769 18.6956 18.3284 0.0000 -10685.9571 1474.1967 0.0000 0.0000 1774.1868 -7393.7727 298.5492 -9167.9595 -7446.9758 301.0532 234.4889 359.7945 30900.9370 99.3113 150.5098
TCL: Running FEP window   5: Lambda1 0.7999999999999998 Lambda2 0.7499999999999998 [dLambda -0.050000000000000044]
TCL: Setting parameter firsttimestep to 0
TCL: Setting parameter alchLambda to 0.7999999999999998
Info: NONBONDED TABLE R-SQUARED SPACING: 0.0625
Info: NONBONDED TABLE SIZE: 705 POINTS
TCL: Setting parameter alchLambda2 to 0.7499999999999998
Info: NONBONDED TABLE R-SQUARED SPACING: 0.0625
Info: NONBONDED TABLE SIZE: 705 POINTS
TCL: Running for 1500000 steps
ETITLE: TS BOND ANGLE DIHED IMPRP ELECT VDW BOUNDARY MISC KINETIC TOTAL TEMP POTENTIAL TOTALAVG TEMPAVG PRESSURE GPRESSURE VOLUME PRESSAVG GPRESSAVG
ENERGY: 0 6.7769 18.6956 18.3284 0.0000 -10685.2774 1474.9196 0.0000 0.0000 1773.3192 -7393.2378 298.4032 -9166.5570 -7393.2378 298.4032 255.5224 346.4201 30900.9370 255.5224 346.4201
ENERGY: 300000 17.0566 15.6840 17.7615 0.0000 -10816.7182 1517.0179 0.0000 0.0000 1811.1926 -7438.0056 304.7763 -9249.1981 -7444.9485 300.6417 616.0760 702.6642 30665.0467 172.7172 260.1814
ENERGY: 600000 8.0108 20.0417 20.9884 0.0000 -10797.2438 1424.8091 0.0000 0.0000 1801.9652 -7521.4286 303.2236 -9323.3938 -7473.0728 299.3671 -250.0103 -223.0949 30427.5069 65.3067 127.6445
ENERGY: 900000 5.7839 14.9046 22.9560 0.0000 -10660.6029 1407.4739 0.0000 0.0000 1791.3132 -7418.1713 301.4311 -9209.4845 -7471.8714 299.1261 -105.6357 -50.3740 30674.3734 156.1528 218.3808
ENERGY: 1200000 8.8023 16.3821 21.8609 0.0000 -10719.4605 1480.0333 0.0000 0.0000 1765.6143 -7426.7676 297.1067 -9192.3819 -7462.2991 299.8067 572.2357 639.0128 30602.5493 200.3027 260.4296
ENERGY: 1500000 8.2977 19.5039 18.0608 0.0000 -10745.3116 1462.3448 0.0000 0.0000 1875.4899 -7361.6146 315.5959 -9237.1045 -7462.3516 300.0943 68.5360 130.9062 30927.7766 190.5145 246.7272
TCL: Running FEP window   6: Lambda1 0.7499999999999998 Lambda2 0.6999999999999997 [dLambda -0.050000000000000044]
TCL: Setting parameter firsttimestep to 0
TCL: Setting parameter alchLambda to 0.7499999999999998
Info: NONBONDED TABLE R-SQUARED SPACING: 0.0625
Info: NONBONDED TABLE SIZE: 705 POINTS
TCL: Setting parameter alchLambda2 to 0.6999999999999997
Info: NONBONDED TABLE R-SQUARED SPACING: 0.0625
Info: NONBONDED TABLE SIZE: 705 POINTS
TCL: Running for 1500000 steps
ETITLE: TS BOND ANGLE DIHED IMPRP ELECT VDW BOUNDARY MISC KINETIC TOTAL TEMP POTENTIAL TOTALAVG TEMPAVG PRESSURE GPRESSURE VOLUME PRESSAVG GPRESSAVG
ENERGY: 0 8.2977 19.5039 18.0608 0.0000 -10744.9251 1462.2001 0.0000 0.0000 1874.6151 -7362.2476 315.4487 -9236.8627 -7362.2476 315.4487 32.4744 108.0435 30927.7766 32.4744 108.0435
ENERGY: 300000 5.6337 14.9549 19.4192 0.0000 -10746.1394 1464.6733 0.0000 0.0000 1779.0455 -7462.4129 299.3668 -9241.4584 -7473.7467 298.3989 471.4750 464.0542 30615.4237 14.6333 39.3662
ENERGY: 600000 9.5219 16.2277 16.7738 0.0000 -10703.1007 1405.8808 0.0000 0.0000 1802.1177 -7452.5787 303.2493 -9254.6964 -7463.6253 299.7771 -185.7901 -133.0238 30156.1287 -98.4497 -55.1493
ENERGY: 900000 8.3920 20.6025 18.1464 0.0000 -10732.4327 1425.6107 0.0000 0.0000 1767.5283 -7492.1528 297.4288 -9259.6811 -7478.0185 298.5630 -245.6228 -196.8031 31078.0095 -165.4613 -118.8716
ENERGY: 1200000 9.5402 14.1147 19.5585 0.0000 -10730.8346 1461.2463 0.0000 0.0000 1878.9797 -7347.3953 316.1831 -9226.3750 -7467.0271 300.7126 489.9609 525.0894 30593.2101 -161.5322 -107.4222
ENERGY: 1500000 8.7169 18.9066 22.5626 0.0000 -10760.5981 1483.0813 0.0000 0.0000 1763.4387 -7463.8920 296.7406 -9227.3307 -7463.2851 300.9925 653.9426 745.1895 30617.6444 -68.4924 -16.8924
TCL: Running FEP window   7: Lambda1 0.6999999999999997 Lambda2 0.6499999999999997 [dLambda -0.050000000000000044]
TCL: Setting parameter firsttimestep to 0
TCL: Setting parameter alchLambda to 0.6999999999999997
Info: NONBONDED TABLE R-SQUARED SPACING: 0.0625
Info: NONBONDED TABLE SIZE: 705 POINTS
TCL: Setting parameter alchLambda2 to 0.6499999999999997
Info: NONBONDED TABLE R-SQUARED SPACING: 0.0625
Info: NONBONDED TABLE SIZE: 705 POINTS
TCL: Running for 1500000 steps
ETITLE: TS BOND ANGLE DIHED IMPRP ELECT VDW BOUNDARY MISC KINETIC TOTAL TEMP POTENTIAL TOTALAVG TEMPAVG PRESSURE GPRESSURE VOLUME PRESSAVG GPRESSAVG
ENERGY: 0 8.7169 18.9066 22.5626 0.0000 -10760.0072 1484.3514 0.0000 0.0000 1762.5952 -7462.8744 296.5986 -9225.4695 -7462.8744 296.5986 646.3871 739.1326 30617.6444 646.3871 739.1326
ENERGY: 300000 4.5224 19.3356 19.2868 0.0000 -10826.9075 1507.0818 0.0000 0.0000 1847.9494 -7428.7315 310.9615 -9276.6808 -7416.8438 305.1739 554.9556 649.1939 30485.5805 370.5322 467.2109
ENERGY: 600000 7.6367 10.8244 19.9394 0.0000 -10666.4132 1408.7889 0.0000 0.0000 1800.1675 -7419.0563 302.9211 -9219.2238 -7415.8028 303.8239 101.8555 190.6964 30298.3932 259.7654 344.2348
ENERGY: 900000 4.8471 17.6589 20.8312 0.0000 -10591.8582 1338.2108 0.0000 0.0000 1751.3960 -7458.9141 294.7141 -9210.3101 -7425.7228 303.1154 -588.9814 -561.3751 31082.5764 169.5578 243.3499
ENERGY: 1200000 9.3301 12.3734 19.1919 0.0000 -10642.7367 1386.6800 0.0000 0.0000 1755.4695 -7459.6918 295.3996 -9215.1614 -7433.9281 301.4966 -349.2213 -214.8412 30464.8155 119.6992 193.9072
ENERGY: 1500000 6.5885 15.2901 18.8502 0.0000 -10864.7527 1473.7485 0.0000 0.0000 1780.2386 -7570.0366 299.5676 -9350.2752 -7447.2399 300.4795 246.4580 304.0260 30377.6499 65.0587 141.1456
TCL: Running FEP window   8: Lambda1 0.6499999999999997 Lambda2 0.5999999999999996 [dLambda -0.050000000000000044]
TCL: Setting parameter firsttimestep to 0
TCL: Setting parameter alchLambda to 0.6499999999999997
Info: NONBONDED TABLE R-SQUARED SPACING: 0.0625
Info: NONBONDED TABLE SIZE: 705 POINTS
TCL: Setting parameter alchLambda2 to 0.5999999999999996
Info: NONBONDED TABLE R-SQUARED SPACING: 0.0625
Info: NONBONDED TABLE SIZE: 705 POINTS
TCL: Running for 1500000 steps
ETITLE: TS BOND ANGLE DIHED IMPRP ELECT VDW BOUNDARY MISC KINETIC TOTAL TEMP POTENTIAL TOTALAVG TEMPAVG PRESSURE GPRESSURE VOLUME PRESSAVG GPRESSAVG
ENERGY: 0 6.5885 15.2901 18.8502 0.0000 -10864.0818 1474.6029 0.0000 0.0000 1779.3859 -7569.3641 299.4241 -9348.7500 -7569.3641 299.4241 207.5931 295.0743 30377.6499 207.5931 295.0743
ENERGY: 300000 7.0667 14.0507 20.8063 0.0000 -10711.0997 1431.0844 0.0000 0.0000 1821.0305 -7417.0611 306.4318 -9238.0916 -7501.2496 301.4145 52.8695 130.8163 30637.0412 -45.4184 41.3598
ENERGY: 600000 9.1154 21.7074 21.4585 0.0000 -10634.0729 1363.3647 0.0000 0.0000 1803.7190 -7414.7080 303.5187 -9218.4270 -7490.9385 300.5654 -257.9064 -248.0081 30565.2639 -144.3355 -72.0735
ENERGY: 900000 13.4785 17.7510 18.8208 0.0000 -10843.9693 1486.6735 0.0000 0.0000 1785.7877 -7521.4577 300.5013 -9307.2454 -7496.5344 301.0077 147.3229 188.9409 30677.9507 -121.1932 -49.2661
ENERGY: 1200000 9.1645 16.2502 20.4781 0.0000 -10667.6095 1439.2821 0.0000 0.0000 1736.0474 -7446.3872 292.1313 -9182.4346 -7488.3962 300.0528 73.2004 155.5897 30760.7143 -188.1705 -120.4820
ENERGY: 1500000 8.2700 15.9821 18.5161 0.0000 -10619.6679 1347.0477 0.0000 0.0000 1778.4220 -7451.4301 299.2619 -9229.8521 -7483.7400 300.0366 -602.3653 -515.5258 30486.6993 -207.0137 -138.5081
TCL: Running FEP window   9: Lambda1 0.5999999999999996 Lambda2 0.5499999999999996 [dLambda -0.050000000000000044]
TCL: Setting parameter firsttimestep to 0
TCL: Setting parameter alchLambda to 0.5999999999999996
Info: NONBONDED TABLE R-SQUARED SPACING: 0.0625
Info: NONBONDED TABLE SIZE: 705 POINTS
TCL: Setting parameter alchLambda2 to 0.5499999999999996
Info: NONBONDED TABLE R-SQUARED SPACING: 0.0625
Info: NONBONDED TABLE SIZE: 705 POINTS
TCL: Running for 1500000 steps
ETITLE: TS BOND ANGLE DIHED IMPRP ELECT VDW BOUNDARY MISC KINETIC TOTAL TEMP POTENTIAL TOTALAVG TEMPAVG PRESSURE GPRESSURE VOLUME PRESSAVG GPRESSAVG
ENERGY: 0 8.2700 15.9821 18.5161 0.0000 -10619.1189 1348.1743 0.0000 0.0000 1777.5496 -7450.6269 299.1151 -9228.1764 -7450.6269 299.1151 -596.9324 -519.5135 30486.6993 -596.9324 -519.5135
ENERGY: 300000 6.5955 19.2968 22.5772 0.0000 -10807.9683 1438.0299 0.0000 0.0000 1798.7038 -7522.7650 302.6748 -9321.4689 -7458.2412 300.2119 -166.9732 -58.4744 30370.8603 -449.9954 -365.3405
ENERGY: 600000 8.2846 14.4629 18.1282 0.0000 -10597.5095 1357.2958 0.0000 0.0000 1786.0334 -7413.3047 300.5427 -9199.3380 -7452.5410 301.3422 -384.4210 -288.5863 31096.2333 -428.0588 -345.5059
ENERGY: 900000 7.1627 13.2851 21.1463 0.0000 -10746.8702 1444.7523 0.0000 0.0000 1792.2621 -7468.2616 301.5908 -9260.5237 -7446.5016 302.0252 162.6331 178.6981 30536.1980 -304.2128 -234.4390
ENERGY: 1200000 10.5814 20.6946 19.1652 0.0000 -10825.7641 1488.8649 0.0000 0.0000 1814.3989 -7472.0591 305.3159 -9286.4580 -7450.4398 301.1819 555.6208 589.3608 30379.6941 -246.0429 -183.8960
ENERGY: 1500000 5.4656 12.1556 17.2400 0.0000 -10701.0492 1381.6127 0.0000 0.0000 1750.5390 -7534.0362 294.5699 -9284.5753 -7462.1608 299.7705 -809.9662 -760.0367 31187.9912 -370.5998 -309.2477
TCL: Running FEP window  10: Lambda1 0.5499999999999996 Lambda2 0.4999999999999996 [dLambda -0.04999999999999999]
TCL: Setting parameter firsttimestep to 0
TCL: Setting parameter alchLambda to 0.5499999999999996
Info: NONBONDED TABLE R-SQUARED SPACING: 0.0625
Info: NONBONDED TABLE SIZE: 705 POINTS
TCL: Setting parameter alchLambda2 to 0.4999999999999996
Info: NONBONDED TABLE R-SQUARED SPACING: 0.0625
Info: NONBONDED TABLE SIZE: 705 POINTS
TCL: Running for 1500000 steps
ETITLE: TS BOND ANGLE DIHED IMPRP ELECT VDW BOUNDARY MISC KINETIC TOTAL TEMP POTENTIAL TOTALAVG TEMPAVG PRESSURE GPRESSURE VOLUME PRESSAVG GPRESSAVG
ENERGY: 0 5.4656 12.1556 17.2400 0.0000 -10700.3143 1382.2903 0.0000 0.0000 1749.6405 -7533.5223 294.4187 -9283.1628 -7533.5223 294.4187 -842.3318 -765.5294 31187.9912 -842.3318 -765.5294
ENERGY: 300000 6.8342 19.9879 22.4849 0.0000 -10773.7238 1437.0663 0.0000 0.0000 1770.2767 -7517.0737 297.8912 -9287.3504 -7482.6217 297.0419 -27.7785 77.6278 30371.0668 -280.6993 -220.3585
ENERGY: 600000 9.6879 12.7195 19.2757 0.0000 -10607.1511 1429.2691 0.0000 0.0000 1772.7189 -7363.4801 298.3022 -9136.1990 -7454.1529 299.2211 -182.7405 -125.4063 31176.1388 -0.6815 48.6519
ENERGY: 900000 6.1785 15.0393 20.5189 0.0000 -10936.8266 1556.2805 0.0000 0.0000 1799.6010 -7539.2084 302.8258 -9338.8094 -7478.0970 298.9994 770.1461 858.3644 30633.0630 -1.4253 51.0750
ENERGY: 1200000 8.3128 17.4267 26.3323 0.0000 -10752.1456 1410.2933 0.0000 0.0000 1772.5794 -7517.2011 298.2787 -9289.7805 -7472.0546 299.0613 -424.2849 -321.2173 30820.4669 -16.8157 38.3986
ENERGY: 1500000 6.6945 14.1456 19.1153 0.0000 -10781.4889 1485.3024 0.0000 0.0000 1753.7070 -7502.5241 295.1030 -9256.2311 -7473.1325 299.2721 606.4162 634.3008 30205.7820 10.9684 63.6399
TCL: Running FEP window  11: Lambda1 0.4999999999999996 Lambda2 0.4499999999999996 [dLambda -0.04999999999999999]
TCL: Setting parameter firsttimestep to 0
TCL: Setting parameter alchLambda to 0.4999999999999996
Info: NONBONDED TABLE R-SQUARED SPACING: 0.0625
Info: NONBONDED TABLE SIZE: 705 POINTS
TCL: Setting parameter alchLambda2 to 0.4499999999999996
Info: NONBONDED TABLE R-SQUARED SPACING: 0.0625
Info: NONBONDED TABLE SIZE: 705 POINTS
TCL: Running for 1500000 steps
ETITLE: TS BOND ANGLE DIHED IMPRP ELECT VDW BOUNDARY MISC KINETIC TOTAL TEMP POTENTIAL TOTALAVG TEMPAVG PRESSURE GPRESSURE VOLUME PRESSAVG GPRESSAVG
ENERGY: 0 6.6945 14.1456 19.1153 0.0000 -10781.7160 1486.2449 0.0000 0.0000 1752.8194 -7502.6963 294.9536 -9255.5157 -7502.6963 294.9536 572.4234 628.0586 30205.7820 572.4234 628.0586
ENERGY: 300000 3.8838 12.9560 19.4973 0.0000 -10723.5687 1459.8461 0.0000 0.0000 1797.0416 -7430.3440 302.3951 -9227.3855 -7488.2206 299.6076 623.8913 682.8426 30509.1432 41.3978 114.3916
ENERGY: 600000 7.5449 20.8108 20.3239 0.0000 -10773.2613 1430.6121 0.0000 0.0000 1804.5921 -7489.3774 303.6656 -9293.9696 -7468.7337 300.6972 -28.6927 7.3278 30426.4492 -125.8300 -66.1196
ENERGY: 900000 13.0693 13.1170 20.6536 0.0000 -10721.0769 1464.6320 0.0000 0.0000 1770.6322 -7438.9727 297.9511 -9209.6050 -7470.2658 298.6508 204.4603 337.7481 30392.7538 -107.6466 -51.2842
ENERGY: 1200000 6.9980 18.5722 19.8693 0.0000 -10678.7323 1442.1534 0.0000 0.0000 1719.6769 -7471.4625 289.3766 -9191.1395 -7479.2506 296.4454 254.5289 307.3071 30370.4786 -1.5137 60.7644
ENERGY: 1500000 10.7228 14.3727 21.2534 0.0000 -10611.9226 1377.1555 0.0000 0.0000 1757.2508 -7431.1675 295.6993 -9188.4183 -7473.2828 297.1761 -263.5726 -207.2211 30548.8782 -0.6685 57.6873
TCL: Running FEP window  12: Lambda1 0.4499999999999996 Lambda2 0.39999999999999963 [dLambda -0.04999999999999999]
TCL: Setting parameter firsttimestep to 0
TCL: Setting parameter alchLambda to 0.4499999999999996
Info: NONBONDED TABLE R-SQUARED SPACING: 0.0625
Info: NONBONDED TABLE SIZE: 705 POINTS
TCL: Setting parameter alchLambda2 to 0.39999999999999963
Info: NONBONDED TABLE R-SQUARED SPACING: 0.0625
Info: NONBONDED TABLE SIZE: 705 POINTS
TCL: Running for 1500000 steps
ETITLE: TS BOND ANGLE DIHED IMPRP ELECT VDW BOUNDARY MISC KINETIC TOTAL TEMP POTENTIAL TOTALAVG TEMPAVG PRESSURE GPRESSURE VOLUME PRESSAVG GPRESSAVG
ENERGY: 0 10.7228 14.3727 21.2534 0.0000 -10611.9235 1377.9602 0.0000 0.0000 1756.3720 -7431.2423 295.5515 -9187.6144 -7431.2423 295.5515 -280.9060 -210.0936 30548.8782 -280.9060 -210.0936
ENERGY: 300000 11.1733 13.3472 19.4981 0.0000 -10702.7075 1356.6904 0.0000 0.0000 1785.9606 -7516.0379 300.5304 -9301.9985 -7443.3678 299.2730 -1042.5699 -984.2907 30860.5056 -172.1091 -88.8076
ENERGY: 600000 6.1380 14.8232 21.1053 0.0000 -10733.9948 1495.3538 0.0000 0.0000 1763.1844 -7433.3901 296.6978 -9196.5744 -7456.7553 298.4500 255.8184 282.4598 30851.5877 -69.1091 10.3617
ENERGY: 900000 9.3687 16.1262 19.6071 0.0000 -10664.3945 1434.4967 0.0000 0.0000 1796.7603 -7388.0354 302.3477 -9184.7957 -7467.0280 296.6754 95.3210 158.0702 30675.2639 24.5097 103.8879
ENERGY: 1200000 7.4880 13.1863 19.5675 0.0000 -10819.2035 1489.6237 0.0000 0.0000 1779.0599 -7510.2781 299.3692 -9289.3380 -7471.7937 297.5252 537.4200 605.9404 30470.1037 39.2043 123.6990
ENERGY: 1500000 5.1949 12.6257 21.0258 0.0000 -10654.0539 1391.9258 0.0000 0.0000 1823.3280 -7399.9537 306.8184 -9223.2817 -7467.9989 297.9494 -454.0824 -364.8620 30823.1791 -46.2734 35.9046
TCL: Running FEP window  13: Lambda1 0.39999999999999963 Lambda2 0.34999999999999964 [dLambda -0.04999999999999999]
TCL: Setting parameter firsttimestep to 0
TCL: Setting parameter alchLambda to 0.39999999999999963
Info: NONBONDED TABLE R-SQUARED SPACING: 0.0625
Info: NONBONDED TABLE SIZE: 705 POINTS
TCL: Setting parameter alchLambda2 to 0.34999999999999964
Info: NONBONDED TABLE R-SQUARED SPACING: 0.0625
Info: NONBONDED TABLE SIZE: 705 POINTS
TCL: Running for 1500000 steps
ETITLE: TS BOND ANGLE DIHED IMPRP ELECT VDW BOUNDARY MISC KINETIC TOTAL TEMP POTENTIAL TOTALAVG TEMPAVG PRESSURE GPRESSURE VOLUME PRESSAVG GPRESSAVG
ENERGY: 0 5.1949 12.6257 21.0258 0.0000 -10654.0552 1392.1997 0.0000 0.0000 1822.4726 -7400.5366 306.6744 -9223.0092 -7400.5366 306.6744 -448.5163 -372.5582 30823.1791 -448.5163 -372.5582
ENERGY: 300000 6.8421 13.4950 19.9154 0.0000 -10772.8969 1506.1131 0.0000 0.0000 1807.2430 -7419.2883 304.1117 -9226.5313 -7463.2061 303.6828 725.1033 707.0830 30791.2882 -123.0060 -73.2109
ENERGY: 600000 4.8645 19.8352 19.3882 0.0000 -10685.8216 1426.6448 0.0000 0.0000 1780.5366 -7434.5524 299.6177 -9215.0889 -7441.2247 302.9990 195.2703 291.0414 30547.8081 -31.8740 20.7520
ENERGY: 900000 10.3856 21.8719 22.3745 0.0000 -10747.3049 1421.7403 0.0000 0.0000 1849.7132 -7421.2193 311.2583 -9270.9326 -7433.6390 303.3105 -171.1374 -112.2135 30492.6796 -36.9779 25.7226
ENERGY: 1200000 10.0503 20.5337 16.8507 0.0000 -10828.3596 1492.5047 0.0000 0.0000 1786.9486 -7501.4716 300.6967 -9288.4202 -7439.6851 303.0976 291.0574 325.4401 30173.5382 46.2764 109.2946
ENERGY: 1500000 6.2606 16.1159 19.5602 0.0000 -10713.6788 1442.0877 0.0000 0.0000 1743.9049 -7485.7494 293.4536 -9229.6544 -7442.4970 302.0077 -70.4139 -43.3674 30945.1681 38.9279 100.6512
TCL: Running FEP window  14: Lambda1 0.34999999999999964 Lambda2 0.29999999999999966 [dLambda -0.04999999999999999]
TCL: Setting parameter firsttimestep to 0
TCL: Setting parameter alchLambda to 0.34999999999999964
Info: NONBONDED TABLE R-SQUARED SPACING: 0.0625
Info: NONBONDED TABLE SIZE: 705 POINTS
TCL: Setting parameter alchLambda2 to 0.29999999999999966
Info: NONBONDED TABLE R-SQUARED SPACING: 0.0625
Info: NONBONDED TABLE SIZE: 705 POINTS
TCL: Running for 1500000 steps
ETITLE: TS BOND ANGLE DIHED IMPRP ELECT VDW BOUNDARY MISC KINETIC TOTAL TEMP POTENTIAL TOTALAVG TEMPAVG PRESSURE GPRESSURE VOLUME PRESSAVG GPRESSAVG
ENERGY: 0 6.2606 16.1159 19.5602 0.0000 -10713.6791 1442.3852 0.0000 0.0000 1743.0061 -7486.3510 293.3023 -9229.3572 -7486.3510 293.3023 -120.1260 -46.9894 30945.1681 -120.1260 -46.9894
ENERGY: 300000 2.9881 13.6546 19.6758 0.0000 -10584.3701 1390.3048 0.0000 0.0000 1725.3790 -7432.3679 290.3361 -9157.7469 -7469.5833 293.5573 -292.9718 -221.5160 31008.1843 -81.7067 -39.5990
ENERGY: 600000 6.7017 13.3203 22.1366 0.0000 -10795.0932 1443.2701 0.0000 0.0000 1771.1118 -7538.5525 298.0318 -9309.6644 -7505.4152 294.1380 133.7222 171.2614 30226.3365 -13.3658 30.8888
ENERGY: 900000 6.8476 11.2233 20.9457 0.0000 -10701.2216 1476.5366 0.0000 0.0000 1783.5587 -7402.1098 300.1263 -9185.6685 -7493.2271 295.7791 538.6959 613.6632 30637.9137 55.0349 112.7717
ENERGY: 1200000 5.2856 17.1695 20.5377 0.0000 -10744.7772 1453.3524 0.0000 0.0000 1773.6804 -7474.7516 298.4640 -9248.4320 -7489.4551 296.6941 -60.1375 35.4080 30652.7538 -23.0404 37.5163
ENERGY: 1500000 9.5793 13.2949 20.2322 0.0000 -10731.8263 1433.6729 0.0000 0.0000 1806.2844 -7448.7627 303.9504 -9255.0471 -7479.6700 297.8955 -36.2262 28.7423 30189.9186 -88.0586 -31.0797
TCL: Running FEP window  15: Lambda1 0.29999999999999966 Lambda2 0.24999999999999967 [dLambda -0.04999999999999999]
TCL: Setting parameter firsttimestep to 0
TCL: Setting parameter alchLambda to 0.29999999999999966
Info: NONBONDED TABLE R-SQUARED SPACING: 0.0625
Info: NONBONDED TABLE SIZE: 705 POINTS
TCL: Setting parameter alchLambda2 to 0.24999999999999967
Info: NONBONDED TABLE R-SQUARED SPACING: 0.0625
Info: NONBONDED TABLE SIZE: 705 POINTS
TCL: Running for 1500000 steps
ETITLE: TS BOND ANGLE DIHED IMPRP ELECT VDW BOUNDARY MISC KINETIC TOTAL TEMP POTENTIAL TOTALAVG TEMPAVG PRESSURE GPRESSURE VOLUME PRESSAVG GPRESSAVG
ENERGY: 0 9.5793 13.2949 20.2322 0.0000 -10731.8263 1433.8866 0.0000 0.0000 1805.3956 -7449.4378 303.8008 -9254.8334 -7449.4378 303.8008 -68.1604 17.5343 30189.9186 -68.1604 17.5343
ENERGY: 300000 10.2210 12.2950 19.6140 0.0000 -10618.8786 1402.7929 0.0000 0.0000 1822.6700 -7351.2858 306.7077 -9173.9557 -7449.9958 301.9947 -389.7688 -376.6636 31337.7934 -44.0466 12.9500
ENERGY: 600000 4.6904 13.3806 19.4615 0.0000 -10738.2878 1431.2861 0.0000 0.0000 1759.4638 -7510.0054 296.0717 -9269.4692 -7450.8102 300.3179 -139.9866 -145.8640 30612.8725 -61.7347 -14.3512
ENERGY: 900000 5.5508 26.5651 24.4206 0.0000 -10743.1519 1444.6321 0.0000 0.0000 1778.6483 -7463.3349 299.3000 -9241.9832 -7464.2233 299.0927 137.6567 208.6482 30304.7333 70.4003 128.8596
ENERGY: 1200000 6.3297 11.8227 18.3424 0.0000 -10648.6903 1391.2483 0.0000 0.0000 1789.5390 -7431.4081 301.1326 -9220.9471 -7464.8812 299.3795 -139.7323 -60.2820 30477.4299 -35.7004 27.1263
ENERGY: 1500000 5.5223 13.4758 17.8255 0.0000 -10729.2255 1414.3297 0.0000 0.0000 1774.2161 -7503.8562 298.5541 -9278.0723 -7471.5320 299.2661 -295.0941 -216.8938 30607.9080 -97.6169 -37.9610
TCL: Running FEP window  16: Lambda1 0.24999999999999967 Lambda2 0.19999999999999968 [dLambda -0.04999999999999999]
TCL: Setting parameter firsttimestep to 0
TCL: Setting parameter alchLambda to 0.24999999999999967
Info: NONBONDED TABLE R-SQUARED SPACING: 0.0625
Info: NONBONDED TABLE SIZE: 705 POINTS
TCL: Setting parameter alchLambda2 to 0.19999999999999968
Info: NONBONDED TABLE R-SQUARED SPACING: 0.0625
Info: NONBONDED TABLE SIZE: 705 POINTS
TCL: Running for 1500000 steps
ETITLE: TS BOND ANGLE DIHED IMPRP ELECT VDW BOUNDARY MISC KINETIC TOTAL TEMP POTENTIAL TOTALAVG TEMPAVG PRESSURE GPRESSURE VOLUME PRESSAVG GPRESSAVG
ENERGY: 0 5.5223 13.4758 17.8255 0.0000 -10729.2250 1413.9119 0.0000 0.0000 1773.3387 -7505.1507 298.4065 -9278.4895 -7505.1507 298.4065 -303.9051 -226.2298 30607.9080 -303.9051 -226.2298
ENERGY: 300000 7.3328 14.1780 18.0623 0.0000 -10770.1703 1477.4141 0.0000 0.0000 1743.7696 -7509.4135 293.4308 -9253.1831 -7502.5034 296.2924 431.7180 542.5906 30300.5240 57.3252 124.0715
ENERGY: 600000 7.0289 13.2322 20.3813 0.0000 -10642.1777 1362.1217 0.0000 0.0000 1800.3195 -7439.0941 302.9467 -9239.4135 -7471.7354 297.0274 -487.3253 -463.6332 30492.7436 -182.3298 -128.8367
ENERGY: 900000 8.1596 15.8086 21.7378 0.0000 -10752.7546 1428.9781 0.0000 0.0000 1764.9035 -7513.1670 296.9871 -9278.0705 -7471.6452 297.9609 -134.0704 -15.4425 30543.7549 -168.4024 -106.8218
ENERGY: 1200000 7.0874 20.8676 22.8436 0.0000 -10675.9230 1437.7604 0.0000 0.0000 1800.1900 -7387.1738 302.9249 -9187.3639 -7473.4030 298.3472 -213.7832 -171.1628 30753.7470 -114.6399 -55.6981
ENERGY: 1500000 10.2855 17.8217 22.9618 0.0000 -10634.0419 1376.4354 0.0000 0.0000 1770.4852 -7436.0524 297.9263 -9206.5376 -7464.6724 298.8295 -101.4568 -25.6260 30124.3284 -89.2778 -32.1584
TCL: Running FEP window  17: Lambda1 0.19999999999999968 Lambda2 0.1499999999999997 [dLambda -0.04999999999999999]
TCL: Setting parameter firsttimestep to 0
TCL: Setting parameter alchLambda to 0.19999999999999968
Info: NONBONDED TABLE R-SQUARED SPACING: 0.0625
Info: NONBONDED TABLE SIZE: 705 POINTS
TCL: Setting parameter alchLambda2 to 0.1499999999999997
Info: NONBONDED TABLE R-SQUARED SPACING: 0.0625
Info: NONBONDED TABLE SIZE: 705 POINTS
TCL: Running for 1500000 steps
ETITLE: TS BOND ANGLE DIHED IMPRP ELECT VDW BOUNDARY MISC KINETIC TOTAL TEMP POTENTIAL TOTALAVG TEMPAVG PRESSURE GPRESSURE VOLUME PRESSAVG GPRESSAVG
ENERGY: 0 10.2855 17.8217 22.9618 0.0000 -10634.0422 1376.9779 0.0000 0.0000 1769.6265 -7436.3688 297.7818 -9205.9953 -7436.3688 297.7818 -96.8540 -30.2518 30124.3284 -96.8540 -30.2518
ENERGY: 300000 5.9034 15.9543 20.3873 0.0000 -10586.8926 1326.5466 0.0000 0.0000 1818.3242 -7399.7768 305.9764 -9218.1010 -7422.0459 302.7616 -821.3499 -757.6586 30681.8499 -216.3659 -130.6221
ENERGY: 600000 4.6022 17.0504 22.4348 0.0000 -10676.2729 1382.9093 0.0000 0.0000 1826.9491 -7422.3270 307.4277 -9249.2762 -7445.3800 302.7223 -518.4868 -458.4794 30808.3408 -342.0345 -277.5768
ENERGY: 900000 3.7273 18.6310 16.7244 0.0000 -10726.1503 1422.7027 0.0000 0.0000 1774.8042 -7489.5607 298.6531 -9264.3650 -7457.1482 302.3589 137.6989 212.4726 30185.7826 -310.7143 -255.8567
ENERGY: 1200000 7.3733 12.4889 16.6987 0.0000 -10847.4760 1523.6196 0.0000 0.0000 1705.2869 -7582.0086 286.9552 -9287.2955 -7468.5784 300.8895 754.6294 776.7633 29602.9849 -204.7661 -144.2561
ENERGY: 1500000 8.3736 19.7686 20.5358 0.0000 -10704.3868 1451.0915 0.0000 0.0000 1779.2405 -7425.3768 299.3996 -9204.6173 -7462.0998 301.1778 -212.5309 -125.9680 30657.8813 -289.3975 -223.4051
TCL: Running FEP window  18: Lambda1 0.1499999999999997 Lambda2 0.09999999999999969 [dLambda -0.05 ]
TCL: Setting parameter firsttimestep to 0
TCL: Setting parameter alchLambda to 0.1499999999999997
Info: NONBONDED TABLE R-SQUARED SPACING: 0.0625
Info: NONBONDED TABLE SIZE: 705 POINTS
TCL: Setting parameter alchLambda2 to 0.09999999999999969
Info: NONBONDED TABLE R-SQUARED SPACING: 0.0625
Info: NONBONDED TABLE SIZE: 705 POINTS
TCL: Running for 1500000 steps
ETITLE: TS BOND ANGLE DIHED IMPRP ELECT VDW BOUNDARY MISC KINETIC TOTAL TEMP POTENTIAL TOTALAVG TEMPAVG PRESSURE GPRESSURE VOLUME PRESSAVG GPRESSAVG
ENERGY: 0 8.3736 19.7686 20.5358 0.0000 -10704.3884 1451.2163 0.0000 0.0000 1778.3671 -7426.1270 299.2526 -9204.4941 -7426.1270 299.2526 -197.7937 -130.9998 30657.8813 -197.7937 -130.9998
ENERGY: 300000 5.6909 16.1256 19.0840 0.0000 -10646.5826 1414.8002 0.0000 0.0000 1755.1751 -7435.7069 295.3500 -9190.8820 -7475.7129 297.8555 -67.0813 -30.7884 30416.2599 -413.3810 -357.2304
ENERGY: 600000 5.6015 15.6518 20.1963 0.0000 -10605.4435 1413.1329 0.0000 0.0000 1854.2283 -7296.6327 312.0181 -9150.8610 -7435.9166 301.8809 142.7953 200.7049 30528.2358 -343.2871 -294.3331
ENERGY: 900000 8.1049 17.4202 17.5577 0.0000 -10623.9974 1394.9015 0.0000 0.0000 1753.9225 -7432.0906 295.1393 -9186.0131 -7438.7339 300.5435 -76.6095 -35.2964 29967.1271 -379.7406 -319.8464
ENERGY: 1200000 4.8832 17.0137 19.6756 0.0000 -10601.5691 1378.8033 0.0000 0.0000 1770.8140 -7410.3793 297.9817 -9181.1933 -7444.0862 299.6250 -519.9057 -524.2926 30668.7062 -245.8486 -190.6098
ENERGY: 1500000 5.0920 17.4980 19.9546 0.0000 -10557.8805 1379.6667 0.0000 0.0000 1793.1604 -7342.5088 301.7420 -9135.6692 -7442.0416 299.2376 -149.0514 -130.5646 30954.0853 -229.7778 -175.2292
TCL: Running FEP window  19: Lambda1 0.09999999999999969 Lambda2 0.049999999999999684 [dLambda -0.05 ]
TCL: Setting parameter firsttimestep to 0
TCL: Setting parameter alchLambda to 0.09999999999999969
Info: NONBONDED TABLE R-SQUARED SPACING: 0.0625
Info: NONBONDED TABLE SIZE: 705 POINTS
TCL: Setting parameter alchLambda2 to 0.049999999999999684
Info: NONBONDED TABLE R-SQUARED SPACING: 0.0625
Info: NONBONDED TABLE SIZE: 705 POINTS
TCL: Running for 1500000 steps
ETITLE: TS BOND ANGLE DIHED IMPRP ELECT VDW BOUNDARY MISC KINETIC TOTAL TEMP POTENTIAL TOTALAVG TEMPAVG PRESSURE GPRESSURE VOLUME PRESSAVG GPRESSAVG
ENERGY: 0 5.0920 17.4980 19.9546 0.0000 -10557.8810 1379.6949 0.0000 0.0000 1792.2461 -7343.3954 301.5881 -9135.6415 -7343.3954 301.5881 -220.9744 -136.0569 30954.0853 -220.9744 -136.0569
ENERGY: 300000 6.8596 18.6668 20.1325 0.0000 -10790.6069 1505.1251 0.0000 0.0000 1816.4086 -7423.4142 305.6540 -9239.8228 -7416.5843 302.7891 704.8154 746.2976 30318.7684 112.3882 192.5266
ENERGY: 600000 4.4156 15.1575 21.3485 0.0000 -10646.7145 1396.1149 0.0000 0.0000 1769.4669 -7440.2112 297.7550 -9209.6780 -7428.9569 301.0548 -336.6230 -333.1999 30623.2804 -109.2376 -46.4454
ENERGY: 900000 6.6402 12.9779 18.7318 0.0000 -10695.2649 1496.6573 0.0000 0.0000 1750.4958 -7409.7619 294.5626 -9160.2577 -7441.3557 299.2742 624.5135 721.5359 30619.4471 38.0495 106.1568
ENERGY: 1200000 8.0703 20.6136 21.0474 0.0000 -10586.6967 1395.3112 0.0000 0.0000 1791.4057 -7350.2483 301.4467 -9141.6540 -7438.6947 298.7105 -258.1029 -168.7567 30270.7205 37.5037 111.6577
ENERGY: 1500000 9.8879 13.5152 20.5215 0.0000 -10776.8451 1465.7768 0.0000 0.0000 1768.8195 -7498.3241 297.6460 -9267.1436 -7450.1896 298.7873 335.1051 356.5248 30189.3846 25.3145 99.9691
TCL: Running FEP window  20: Lambda1 0.049999999999999684 Lambda2 0.0    [dLambda -0.049999999999999684]
TCL: Setting parameter firsttimestep to 0
TCL: Setting parameter alchLambda to 0.049999999999999684
Info: NONBONDED TABLE R-SQUARED SPACING: 0.0625
Info: NONBONDED TABLE SIZE: 705 POINTS
TCL: Setting parameter alchLambda2 to 0.0
Info: NONBONDED TABLE R-SQUARED SPACING: 0.0625
Info: NONBONDED TABLE SIZE: 705 POINTS
TCL: Running for 1500000 steps
ETITLE: TS BOND ANGLE DIHED IMPRP ELECT VDW BOUNDARY MISC KINETIC TOTAL TEMP POTENTIAL TOTALAVG TEMPAVG PRESSURE GPRESSURE VOLUME PRESSAVG GPRESSAVG
ENERGY: 0 9.8879 13.5152 20.5215 0.0000 -10776.8436 1465.3607 0.0000 0.0000 1767.9237 -7499.6347 297.4953 -9267.5583 -7499.6347 297.4953 266.8805 348.9611 30189.3846 266.8805 348.9611
ENERGY: 300000 11.0835 18.5359 19.5559 0.0000 -10742.7562 1459.0757 0.0000 0.0000 1832.6129 -7401.8924 308.3808 -9234.5053 -7433.9164 300.1306 152.8572 183.4857 30157.1315 84.1407 140.7312
ENERGY: 600000 15.1507 11.8577 19.0572 0.0000 -10617.8666 1375.7286 0.0000 0.0000 1785.7150 -7410.3574 300.4891 -9196.0724 -7441.0422 300.3184 -716.1925 -721.1647 30347.4641 -36.1436 24.4867
ENERGY: 900000 6.0351 11.6232 22.4939 0.0000 -10651.0589 1413.0860 0.0000 0.0000 1759.6652 -7438.1556 296.1056 -9197.8208 -7443.0585 300.0500 -465.2449 -388.4251 30693.6743 -164.1863 -100.8496
ENERGY: 1200000 10.8921 11.3359 18.7866 0.0000 -10695.8816 1481.1227 0.0000 0.0000 1723.5247 -7450.2195 290.0241 -9173.7442 -7429.6433 300.4022 206.5203 271.4593 30425.9942 -123.4152 -63.0728
ENERGY: 1500000 7.5541 14.7559 20.3833 0.0000 -10693.6519 1417.5860 0.0000 0.0000 1762.2925 -7471.0801 296.5477 -9233.3726 -7441.5565 300.6308 -120.0143 -45.5563 30202.7355 -148.6856 -88.3595
TCL: Exiting due to exit command.
