Info: SIMULATION PARAMETERS:
Info: TIMESTEP               2
Info: NUMBER OF STEPS        0
Info: STEPS PER CYCLE        10
Info: PERIODIC CELL BASIS 1  29.9895 0 0
Info: PERIODIC CELL BASIS 2  0 33.136 0
Info: PERIODIC CELL BASIS 3  0 0 30.6444
Info: PERIODIC CELL CENTER   0 0 0
Info: WRAPPING WATERS AROUND PERIODIC BOUNDARIES ON OUTPUT.
Info: WRAPPING ALL CLUSTERS AROUND PERIODIC BOUNDARIES ON OUTPUT.
Info: FIRST LDB TIMESTEP     50
Info: LAST LDB TIMESTEP     -1
Info: HOM BACKGROUND SCALING 1
Info: PME BACKGROUND SCALING 1
Info: MIN ATOMS PER PATCH    40
Info: EMPTY PATCH LOAD       40 ATOMS
Info: VELOCITY FILE          mobley_7176248_equil.vel
Info: CENTER OF MASS MOVING INITIALLY? NO
Info: DIELECTRIC             1
Info: EXCLUDE                SCALED ONE-FOUR
Info: 1-4 ELECTROSTATICS SCALED BY 0.833333
Info: MODIFIED 1-4 VDW PARAMETERS WILL BE USED
Info: DCD FILENAME           mobley_7176248_prod.dcd
Info: DCD FREQUENCY          100000
Info: DCD FIRST STEP         100000
Info: DCD FILE WILL CONTAIN UNIT CELL DATA
Info: XST FILENAME           mobley_7176248_prod.xst
Info: XST FREQUENCY          100000
Info: NO VELOCITY DCD OUTPUT
Info: NO FORCE DCD OUTPUT
Info: OUTPUT FILENAME        mobley_7176248_prod
Info: BINARY OUTPUT FILES WILL BE USED
Info: RESTART FILENAME       mobley_7176248_prod.restart
Info: RESTART FREQUENCY      100000
Info: BINARY RESTART FILES WILL BE USED
Info: CUTOFF                 9
Info: PAIRLIST DISTANCE      11
Info: PAIRLIST SHRINK RATE   0.01
Info: PAIRLIST GROW RATE     0.01
Info: PAIRLIST TRIGGER       0.3
Info: PAIRLISTS PER CYCLE    2
Info: PAIRLISTS ENABLED
Info: MARGIN                 2
Info: HYDROGEN GROUP CUTOFF  2.5
Info: PATCH DIMENSION        15.5
Info: ENERGY OUTPUT STEPS    100000
Info: ENERGY EVALUATION STEPS    100000
Info: OUTPUT ENERGY PRECISION 4
Info: CROSSTERM ENERGY INCLUDED IN DIHEDRAL
Info: TIMING OUTPUT STEPS    1000000
Info: PRESSURE OUTPUT STEPS  100000
Info: ALCHEMICAL FEP ON
Info: FEP CURRENT LAMBDA VALUE     0
Info: FEP COMPARISON LAMBDA VALUE  0.05
Info: FEP INTRA-ALCHEMICAL NON-BONDED INTERACTIONS WILL BE RETAINED
Info: FEP INTRA-ALCHEMICAL BONDED INTERACTIONS WILL BE RETAINED
Info: FEP VDW SHIFTING COEFFICIENT 5
Info: FEP ELEC. ACTIVE FOR ANNIHILATED PARTICLES BETWEEN LAMBDA = 0 AND LAMBDA = 0.5
Info: FEP ELEC. ACTIVE FOR EXNIHILATED PARTICLES BETWEEN LAMBDA = 0.5 AND LAMBDA = 1
Info: FEP VDW ACTIVE FOR ANNIHILATED PARTICLES BETWEEN LAMBDA = 0 AND LAMBDA = 1
Info: FEP VDW ACTIVE FOR EXNIHILATED PARTICLES BETWEEN LAMBDA = 0 AND LAMBDA = 1
Info: FEP BOND ACTIVE FOR ANNIHILATED PARTICLES BETWEEN LAMBDA = 1 AND LAMBDA = 1
Info: FEP BOND ACTIVE FOR EXNIHILATED PARTICLES BETWEEN LAMBDA = 0 AND LAMBDA = 0
Info: LANGEVIN DYNAMICS ACTIVE
Info: LANGEVIN TEMPERATURE   300
Info: LANGEVIN USING BBK INTEGRATOR
Info: LANGEVIN DAMPING COEFFICIENT IS 1 INVERSE PS
Info: LANGEVIN DYNAMICS APPLIED TO HYDROGENS
Info: LANGEVIN PISTON PRESSURE CONTROL ACTIVE
Info:        TARGET PRESSURE IS 1.01325 BAR
Info:     OSCILLATION PERIOD IS 50 FS
Info:             DECAY TIME IS 25 FS
Info:     PISTON TEMPERATURE IS 300 K
Info:       PRESSURE CONTROL IS GROUP-BASED
Info:    INITIAL STRAIN RATE IS -0.000462265 -0.000462265 -0.000462265
Info:       CELL FLUCTUATION IS ISOTROPIC
Info: PARTICLE MESH EWALD (PME) ACTIVE
Info: PME TOLERANCE               1e-06
Info: PME EWALD COEFFICIENT       0.348832
Info: PME INTERPOLATION ORDER     4
Info: PME GRID DIMENSIONS         32 36 32
Info: PME MAXIMUM GRID SPACING    1
Info: PME CALCULATION WILL BE PERFORMED ON GPU
Info: FULL ELECTROSTATIC EVALUATION FREQUENCY      2
Info: USING VERLET I (r-RESPA) MTS SCHEME.
Info: C1 SPLITTING OF LONG RANGE ELECTROSTATICS
Info: PLACING ATOMS IN PATCHES BY HYDROGEN GROUPS
Info: RIGID BONDS TO HYDROGEN : ALL
Info:         ERROR TOLERANCE : 1e-08
Info:          MAX ITERATIONS : 100
Info: RIGID WATER USING SETTLE ALGORITHM
Info: RANDOM NUMBER SEED     1744087928
Info: USE HYDROGEN BONDS?    NO
Info: Using AMBER format force field!
Info: AMBER PARM FILE        mobley_7176248.prmtop
Info: COORDINATE PDB         mobley_7176248.pdb
Info: Exclusions will be read from PARM file!
Info: SCNB (VDW SCALING)     2
Info: USING ARITHMETIC MEAN TO COMBINE L-J SIGMA PARAMETERS
Info: BINARY COORDINATES     mobley_7176248_equil.coor
Info: SUMMARY OF PARAMETERS:
Info: 13 BONDS
Info: 18 ANGLES
Info:   18 HARMONIC
Info:   0 COSINE-BASED
Info: 8 DIHEDRAL
Info: 0 IMPROPER
Info: 0 CROSSTERM
Info: 0 VDW
Info: 55 VDW_PAIRS
Info: 0 NBTHOLE_PAIRS
Info: To read alchdata from file: mobley_7176248.pdb
Info: To read alchflag data from column: 5
Info: STRUCTURE SUMMARY:
Info: 2940 ATOMS
Info: 2940 BONDS
Info: 69 ANGLES
Info: 97 DIHEDRALS
Info: 0 IMPROPERS
Info: 0 CROSSTERMS
Info: 3096 EXCLUSIONS
Info: 2917 RIGID BONDS
Info: ALCH: 0 ATOMS TO DISAPPEAR IN FINAL STATE
Info: ALCH: 39 ATOMS TO APPEAR IN FINAL STATE
Info: 5903 DEGREES OF FREEDOM
Info: 990 HYDROGEN GROUPS
Info: 4 ATOMS IN LARGEST HYDROGEN GROUP
Info: 990 MIGRATION GROUPS
Info: 4 ATOMS IN LARGEST MIGRATION GROUP
Info: TOTAL MASS = 17756.8 amu
Info: TOTAL CHARGE = 0.000199966 e
Info: MASS DENSITY = 0.968286 g/cm^3
Info: ATOM DENSITY = 0.0965446 atoms/A^3
Info: ADDED 0 IMPLICIT EXCLUSIONS
Info: NONBONDED TABLE R-SQUARED SPACING: 0.0625
Info: NONBONDED TABLE SIZE: 705 POINTS
Info: REMOVING COM VELOCITY -0.0396983 0.0415127 0.0281004
Info: Use 3D box decompostion in PME FFT.
Info: Updated CUDA force table with 4096 elements.
Info: Updated CUDA LJ table with 10 x 10 elements.
Info: Found 40 unique exclusion lists needing 212 bytes
TCL: Running for 1500000 steps
ETITLE: TS BOND ANGLE DIHED IMPRP ELECT VDW BOUNDARY MISC KINETIC TOTAL TEMP POTENTIAL TOTALAVG TEMPAVG PRESSURE GPRESSURE VOLUME PRESSAVG GPRESSAVG
ENERGY: 0 5.6281 13.4324 22.2531 0.0000 -10614.1837 1478.8990 0.0000 0.0000 1748.0245 -7345.9465 298.0335 -9093.9710 -7345.9465 298.0335 536.2798 622.1629 30452.2319 536.2798 622.1629
ENERGY: 300000 9.0076 16.0811 20.5468 0.0000 -10551.6776 1384.8221 0.0000 0.0000 1743.8368 -7377.3832 297.3195 -9121.2200 -7353.2831 298.5726 -319.7633 -287.1278 29914.8057 586.1676 642.1597
ENERGY: 600000 5.9779 16.9377 18.3640 0.0000 -10653.7293 1443.6662 0.0000 0.0000 1791.3321 -7377.4515 305.4174 -9168.7836 -7357.9267 299.6181 258.4988 315.4510 29673.4957 396.5244 443.0293
ENERGY: 900000 9.9357 16.6467 21.7161 0.0000 -10754.2592 1511.1152 0.0000 0.0000 1697.9330 -7496.9124 289.4931 -9194.8454 -7367.0259 298.9787 665.6279 688.1482 29660.5921 279.8617 332.6727
ENERGY: 1200000 8.4528 19.2664 20.8342 0.0000 -10426.1546 1341.6960 0.0000 0.0000 1745.1775 -7290.7276 297.5481 -9035.9052 -7352.2717 298.7587 -671.8119 -676.8189 30162.2036 67.0407 119.6661
ENERGY: 1500000 6.5284 20.1529 19.9009 0.0000 -10586.8829 1414.9107 0.0000 0.0000 1717.6795 -7407.7105 292.8598 -9125.3900 -7347.2014 298.6256 -498.0551 -505.8026 30173.3660 37.8441 88.5201
TCL: Running FEP window   2: Lambda1 0.05   Lambda2 0.1    [dLambda 0.05  ]
TCL: Setting parameter firsttimestep to 0
TCL: Setting parameter alchLambda to 0.05
Info: NONBONDED TABLE R-SQUARED SPACING: 0.0625
Info: NONBONDED TABLE SIZE: 705 POINTS
TCL: Setting parameter alchLambda2 to 0.1
Info: NONBONDED TABLE R-SQUARED SPACING: 0.0625
Info: NONBONDED TABLE SIZE: 705 POINTS
TCL: Running for 1500000 steps
ETITLE: TS BOND ANGLE DIHED IMPRP ELECT VDW BOUNDARY MISC KINETIC TOTAL TEMP POTENTIAL TOTALAVG TEMPAVG PRESSURE GPRESSURE VOLUME PRESSAVG GPRESSAVG
ENERGY: 0 6.5284 20.1529 19.9009 0.0000 -10586.8830 1420.9014 0.0000 0.0000 1716.8155 -7402.5838 292.7125 -9119.3994 -7402.5838 292.7125 -569.7719 -490.8934 30173.3660 -569.7719 -490.8934
ENERGY: 300000 11.0419 14.8938 19.0790 0.0000 -10571.9237 1413.6605 0.0000 0.0000 1726.1157 -7387.1329 294.2981 -9113.2486 -7389.7182 295.9669 -314.4912 -206.1757 30045.3230 -64.6630 19.6120
ENERGY: 600000 3.8568 14.3421 19.2184 0.0000 -10685.6780 1463.3142 0.0000 0.0000 1789.3337 -7395.6127 305.0766 -9184.9464 -7380.2613 297.9600 268.5764 354.9614 29930.4922 73.5995 148.6056
ENERGY: 900000 12.2954 27.1317 16.9348 0.0000 -10639.6161 1467.4218 0.0000 0.0000 1698.5829 -7417.2494 289.6039 -9115.8324 -7406.8802 295.9522 443.8229 448.4613 29781.1526 242.4122 300.0197
ENERGY: 1200000 11.8614 12.8686 21.2012 0.0000 -10378.6320 1295.2719 0.0000 0.0000 1800.0113 -7237.4176 306.8971 -9037.4289 -7387.3313 297.4533 -888.0520 -867.9446 29833.7102 187.0971 247.8304
ENERGY: 1500000 10.7593 19.3673 19.7042 0.0000 -10551.3389 1362.4304 0.0000 0.0000 1744.3770 -7394.7006 297.4116 -9139.0777 -7389.2474 297.4206 -937.6793 -928.6484 30254.8309 65.0393 124.2434
TCL: Running FEP window   3: Lambda1 0.1    Lambda2 0.15000000000000002 [dLambda 0.05000000000000002]
TCL: Setting parameter firsttimestep to 0
TCL: Setting parameter alchLambda to 0.1
Info: NONBONDED TABLE R-SQUARED SPACING: 0.0625
Info: NONBONDED TABLE SIZE: 705 POINTS
TCL: Setting parameter alchLambda2 to 0.15000000000000002
Info: NONBONDED TABLE R-SQUARED SPACING: 0.0625
Info: NONBONDED TABLE SIZE: 705 POINTS
TCL: Running for 1500000 steps
ETITLE: TS BOND ANGLE DIHED IMPRP ELECT VDW BOUNDARY MISC KINETIC TOTAL TEMP POTENTIAL TOTALAVG TEMPAVG PRESSURE GPRESSURE VOLUME PRESSAVG GPRESSAVG
ENERGY: 0 10.7593 19.3673 19.7042 0.0000 -10551.3395 1369.0819 0.0000 0.0000 1743.5226 -7388.9042 297.2660 -9132.4269 -7388.9042 297.2660 -991.3620 -906.5063 30254.8309 -991.3620 -906.5063
ENERGY: 300000 15.3977 13.8852 20.7527 0.0000 -10570.4460 1383.1253 0.0000 0.0000 1760.3107 -7376.9744 300.1283 -9137.2851 -7390.2792 297.3624 -589.0080 -545.3195 29959.2243 -584.3002 -533.8330
ENERGY: 600000 7.1258 16.9234 20.8501 0.0000 -10574.6394 1381.3667 0.0000 0.0000 1756.5664 -7391.8069 299.4899 -9148.3733 -7409.9179 296.2401 -722.5665 -627.0404 30336.4767 -454.8936 -389.4009
ENERGY: 900000 5.7861 18.3840 18.6463 0.0000 -10682.2224 1496.9687 0.0000 0.0000 1807.4648 -7334.9724 308.1679 -9142.4372 -7380.5046 297.9800 381.8184 369.6664 30087.8131 -342.3241 -289.3723
ENERGY: 1200000 11.2143 17.5574 20.4191 0.0000 -10602.0604 1409.1814 0.0000 0.0000 1778.0071 -7365.6812 303.1455 -9143.6883 -7376.3727 297.8538 -130.1715 -57.9080 29821.3466 -283.5776 -231.5153
ENERGY: 1500000 3.9895 14.8847 18.3119 0.0000 -10581.6886 1420.7204 0.0000 0.0000 1829.9072 -7293.8749 311.9943 -9123.7821 -7369.0758 298.8470 217.4343 331.3858 29934.7278 -209.3003 -151.4103
TCL: Running FEP window   4: Lambda1 0.15000000000000002 Lambda2 0.2    [dLambda 0.04999999999999999]
TCL: Setting parameter firsttimestep to 0
TCL: Setting parameter alchLambda to 0.15000000000000002
Info: NONBONDED TABLE R-SQUARED SPACING: 0.0625
Info: NONBONDED TABLE SIZE: 705 POINTS
TCL: Setting parameter alchLambda2 to 0.2
Info: NONBONDED TABLE R-SQUARED SPACING: 0.0625
Info: NONBONDED TABLE SIZE: 705 POINTS
TCL: Running for 1500000 steps
ETITLE: TS BOND ANGLE DIHED IMPRP ELECT VDW BOUNDARY MISC KINETIC TOTAL TEMP POTENTIAL TOTALAVG TEMPAVG PRESSURE GPRESSURE VOLUME PRESSAVG GPRESSAVG
ENERGY: 0 3.9895 14.8847 18.3119 0.0000 -10581.6888 1422.7644 0.0000 0.0000 1829.0529 -7292.6854 311.8486 -9121.7383 -7292.6854 311.8486 257.3027 347.3544 29934.7278 257.3027 347.3544
ENERGY: 300000 7.3304 13.4788 21.3271 0.0000 -10332.6331 1334.7456 0.0000 0.0000 1730.6561 -7225.0951 295.0723 -8955.7512 -7294.0052 302.6927 -512.2393 -468.0845 30597.2928 -41.1421 28.1812
ENERGY: 600000 6.5827 15.6491 21.3052 0.0000 -10638.3009 1479.0633 0.0000 0.0000 1738.8525 -7376.8482 296.4697 -9115.7007 -7323.6926 301.2495 266.3239 351.4540 30238.2410 -41.8578 27.2480
ENERGY: 900000 9.0577 15.5461 23.8684 0.0000 -10697.0012 1511.3271 0.0000 0.0000 1738.5106 -7398.6914 296.4114 -9137.2020 -7344.9067 299.6305 715.8807 823.7848 29927.2283 163.9273 230.3942
ENERGY: 1200000 6.5536 13.0122 20.1989 0.0000 -10587.6247 1409.7140 0.0000 0.0000 1746.0407 -7392.1053 297.6953 -9138.1460 -7348.8238 299.3251 -608.6726 -474.8387 30446.9900 97.0448 165.4610
ENERGY: 1500000 5.0270 17.7174 19.2165 0.0000 -10540.2747 1380.3073 0.0000 0.0000 1813.3257 -7304.6808 309.1672 -9118.0065 -7348.3722 300.4398 -235.2448 -199.2821 29670.3152 -1.4439 63.9734
TCL: Running FEP window   5: Lambda1 0.2    Lambda2 0.25   [dLambda 0.04999999999999999]
TCL: Setting parameter firsttimestep to 0
TCL: Setting parameter alchLambda to 0.2
Info: NONBONDED TABLE R-SQUARED SPACING: 0.0625
Info: NONBONDED TABLE SIZE: 705 POINTS
TCL: Setting parameter alchLambda2 to 0.25
Info: NONBONDED TABLE R-SQUARED SPACING: 0.0625
Info: NONBONDED TABLE SIZE: 705 POINTS
TCL: Running for 1500000 steps
ETITLE: TS BOND ANGLE DIHED IMPRP ELECT VDW BOUNDARY MISC KINETIC TOTAL TEMP POTENTIAL TOTALAVG TEMPAVG PRESSURE GPRESSURE VOLUME PRESSAVG GPRESSAVG
ENERGY: 0 5.0270 17.7174 19.2165 0.0000 -10540.2746 1382.4824 0.0000 0.0000 1812.4286 -7303.4028 309.0142 -9115.8313 -7303.4028 309.0142 -268.9848 -180.0571 29670.3152 -268.9848 -180.0571
ENERGY: 300000 4.6383 19.9240 17.2673 0.0000 -10439.5157 1320.4768 0.0000 0.0000 1780.2861 -7296.9233 303.5340 -9077.2093 -7344.5845 300.5264 -648.5274 -586.7459 30004.8286 -399.9024 -291.5471
ENERGY: 600000 6.9219 14.9579 24.8613 0.0000 -10598.5759 1397.4939 0.0000 0.0000 1767.0153 -7387.3255 301.2714 -9154.3409 -7342.2950 302.1897 -290.8496 -238.3765 30259.7815 -515.8270 -422.2025
ENERGY: 900000 7.0471 13.7029 20.7662 0.0000 -10660.8705 1484.7465 0.0000 0.0000 1790.0504 -7344.5573 305.1988 -9134.6077 -7339.0767 301.1064 750.8762 886.1999 29923.7523 -389.6356 -295.3785
ENERGY: 1200000 8.9405 19.6680 18.8432 0.0000 -10624.6220 1461.8316 0.0000 0.0000 1805.1260 -7310.2127 307.7692 -9115.3388 -7335.9358 301.3896 569.2818 672.0359 29666.6273 -274.6990 -177.5338
ENERGY: 1500000 5.5233 16.0245 20.5135 0.0000 -10390.1651 1287.7165 0.0000 0.0000 1781.5115 -7278.8758 303.7430 -9060.3873 -7334.3459 301.7592 -909.7507 -862.5765 30174.6336 -270.5722 -182.8242
TCL: Running FEP window   6: Lambda1 0.25   Lambda2 0.3    [dLambda 0.04999999999999999]
TCL: Setting parameter firsttimestep to 0
TCL: Setting parameter alchLambda to 0.25
Info: NONBONDED TABLE R-SQUARED SPACING: 0.0625
Info: NONBONDED TABLE SIZE: 705 POINTS
TCL: Setting parameter alchLambda2 to 0.3
Info: NONBONDED TABLE R-SQUARED SPACING: 0.0625
Info: NONBONDED TABLE SIZE: 705 POINTS
TCL: Running for 1500000 steps
ETITLE: TS BOND ANGLE DIHED IMPRP ELECT VDW BOUNDARY MISC KINETIC TOTAL TEMP POTENTIAL TOTALAVG TEMPAVG PRESSURE GPRESSURE VOLUME PRESSAVG GPRESSAVG
ENERGY: 0 5.5233 16.0245 20.5135 0.0000 -10390.1646 1288.5544 0.0000 0.0000 1780.6379 -7278.9110 303.5940 -9059.5489 -7278.9110 303.5940 -940.2098 -851.1954 30174.6336 -940.2098 -851.1954
ENERGY: 300000 5.6185 14.3730 19.0715 0.0000 -10561.3828 1401.8212 0.0000 0.0000 1786.2437 -7334.2549 304.5498 -9120.4986 -7329.4956 299.9978 -91.8468 -74.8673 29989.8297 -353.1868 -281.1825
ENERGY: 600000 6.8304 14.8994 18.1658 0.0000 -10503.2663 1397.4899 0.0000 0.0000 1753.9973 -7311.8835 299.0519 -9065.8808 -7336.6579 300.3832 -247.7633 -164.2799 30179.4225 -283.5037 -213.8600
ENERGY: 900000 5.6137 12.1311 22.0514 0.0000 -10558.4913 1401.3273 0.0000 0.0000 1772.1468 -7345.2210 302.1463 -9117.3678 -7340.4099 300.7454 -376.3609 -315.7172 30153.3371 -271.7582 -198.6384
ENERGY: 1200000 7.1294 18.1060 19.9751 0.0000 -10685.5142 1502.6917 0.0000 0.0000 1740.7692 -7396.8427 296.7965 -9137.6119 -7347.7956 300.4264 734.9474 832.0189 29659.0433 -123.9243 -47.2730
ENERGY: 1500000 4.3000 17.5569 20.1831 0.0000 -10562.8054 1352.2839 0.0000 0.0000 1725.6956 -7442.7859 294.2265 -9168.4815 -7363.3946 299.8243 -668.4963 -563.5801 29952.3630 -116.8599 -41.6072
TCL: Running FEP window   7: Lambda1 0.3    Lambda2 0.35   [dLambda 0.04999999999999999]
TCL: Setting parameter firsttimestep to 0
TCL: Setting parameter alchLambda to 0.3
Info: NONBONDED TABLE R-SQUARED SPACING: 0.0625
Info: NONBONDED TABLE SIZE: 705 POINTS
TCL: Setting parameter alchLambda2 to 0.35
Info: NONBONDED TABLE R-SQUARED SPACING: 0.0625
Info: NONBONDED TABLE SIZE: 705 POINTS
TCL: Running for 1500000 steps
ETITLE: TS BOND ANGLE DIHED IMPRP ELECT VDW BOUNDARY MISC KINETIC TOTAL TEMP POTENTIAL TOTALAVG TEMPAVG PRESSURE GPRESSURE VOLUME PRESSAVG GPRESSAVG
ENERGY: 0 4.3000 17.5569 20.1831 0.0000 -10562.8057 1353.0608 0.0000 0.0000 1724.8488 -7442.8561 294.0821 -9167.7050 -7442.8561 294.0821 -632.6997 -549.3439 29952.3630 -632.6997 -549.3439
ENERGY: 300000 5.1091 18.0012 20.3729 0.0000 -10686.7943 1472.5212 0.0000 0.0000 1722.1252 -7448.6647 293.6178 -9170.7898 -7374.3715 298.5758 472.1307 522.3618 29859.5660 -217.3420 -146.3326
ENERGY: 600000 4.9162 19.8032 18.8346 0.0000 -10679.4498 1420.6309 0.0000 0.0000 1786.4882 -7428.7766 304.5915 -9215.2648 -7378.1853 298.5044 -352.1066 -271.8354 29903.2599 -4.2257 66.7623
ENERGY: 900000 4.9323 17.3085 20.5523 0.0000 -10442.5215 1318.1533 0.0000 0.0000 1793.7631 -7287.8120 305.8318 -9081.5751 -7373.8562 298.4418 -496.0038 -402.8594 29956.4106 -5.2788 70.0355
ENERGY: 1200000 9.3957 10.9750 19.1327 0.0000 -10603.4564 1434.3001 0.0000 0.0000 1765.0314 -7364.6215 300.9332 -9129.6529 -7365.7529 299.1255 39.6486 16.7184 30039.8474 -105.0089 -32.5610
ENERGY: 1500000 8.5410 14.3411 23.5137 0.0000 -10566.6138 1395.2493 0.0000 0.0000 1705.8566 -7419.1121 290.8440 -9124.9687 -7366.4420 299.2964 -442.1360 -372.4467 30325.1690 -93.4224 -22.6425
TCL: Running FEP window   8: Lambda1 0.35   Lambda2 0.39999999999999997 [dLambda 0.04999999999999999]
TCL: Setting parameter firsttimestep to 0
TCL: Setting parameter alchLambda to 0.35
Info: NONBONDED TABLE R-SQUARED SPACING: 0.0625
Info: NONBONDED TABLE SIZE: 705 POINTS
TCL: Setting parameter alchLambda2 to 0.39999999999999997
Info: NONBONDED TABLE R-SQUARED SPACING: 0.0625
Info: NONBONDED TABLE SIZE: 705 POINTS
TCL: Running for 1500000 steps
ETITLE: TS BOND ANGLE DIHED IMPRP ELECT VDW BOUNDARY MISC KINETIC TOTAL TEMP POTENTIAL TOTALAVG TEMPAVG PRESSURE GPRESSURE VOLUME PRESSAVG GPRESSAVG
ENERGY: 0 8.5410 14.3411 23.5137 0.0000 -10566.6144 1396.4926 0.0000 0.0000 1704.9964 -7418.7295 290.6973 -9123.7259 -7418.7295 290.6973 -456.9199 -358.5566 30325.1690 -456.9199 -358.5566
ENERGY: 300000 7.2202 19.8709 18.2551 0.0000 -10641.7979 1492.7118 0.0000 0.0000 1736.1775 -7367.5622 296.0136 -9103.7398 -7389.3957 294.1445 616.0708 656.2789 29901.3330 -61.8860 -4.1084
ENERGY: 600000 9.9546 17.2636 24.2565 0.0000 -10422.7277 1368.1049 0.0000 0.0000 1817.5716 -7185.5765 309.8911 -9003.1481 -7363.8607 297.0842 -556.8292 -454.1745 30681.6935 -176.0534 -110.7048
ENERGY: 900000 5.7190 14.3329 17.7640 0.0000 -10492.9246 1339.1164 0.0000 0.0000 1737.1589 -7378.8334 296.1810 -9115.9923 -7360.6287 297.4480 -678.6987 -579.1038 30345.5462 -98.1921 -24.3812
ENERGY: 1200000 10.5927 20.3165 20.6754 0.0000 -10468.2614 1342.5930 0.0000 0.0000 1820.0005 -7254.0832 310.3052 -9074.0837 -7338.5156 300.1174 -577.3870 -524.0885 30144.7779 -32.0633 46.6600
ENERGY: 1500000 5.3973 18.8855 19.0257 0.0000 -10599.3773 1446.1101 0.0000 0.0000 1713.5220 -7396.4366 292.1509 -9109.9587 -7343.5631 300.1469 419.4788 503.0028 30157.9406 101.2281 180.7323
TCL: Running FEP window   9: Lambda1 0.39999999999999997 Lambda2 0.44999999999999996 [dLambda 0.04999999999999999]
TCL: Setting parameter firsttimestep to 0
TCL: Setting parameter alchLambda to 0.39999999999999997
Info: NONBONDED TABLE R-SQUARED SPACING: 0.0625
Info: NONBONDED TABLE SIZE: 705 POINTS
TCL: Setting parameter alchLambda2 to 0.44999999999999996
Info: NONBONDED TABLE R-SQUARED SPACING: 0.0625
Info: NONBONDED TABLE SIZE: 705 POINTS
TCL: Running for 1500000 steps
ETITLE: TS BOND ANGLE DIHED IMPRP ELECT VDW BOUNDARY MISC KINETIC TOTAL TEMP POTENTIAL TOTALAVG TEMPAVG PRESSURE GPRESSURE VOLUME PRESSAVG GPRESSAVG
ENERGY: 0 5.3973 18.8855 19.0257 0.0000 -10599.3774 1446.6207 0.0000 0.0000 1712.6624 -7396.7858 292.0044 -9109.4483 -7396.7858 292.0044 432.3366 520.7845 30157.9406 432.3366 520.7845
ENERGY: 300000 6.8520 16.7087 19.2919 0.0000 -10585.2758 1437.4589 0.0000 0.0000 1805.4979 -7299.4664 307.8326 -9104.9643 -7342.3506 303.4062 259.1990 345.2913 30145.7581 290.3885 359.6318
ENERGY: 600000 7.1132 12.6207 21.0932 0.0000 -10588.4188 1400.6732 0.0000 0.0000 1712.0829 -7434.8356 291.9056 -9146.9185 -7367.7253 299.0495 -250.7658 -198.8413 30291.5211 190.1378 261.6612
ENERGY: 900000 7.6921 17.2687 22.7331 0.0000 -10589.2293 1439.5863 0.0000 0.0000 1725.2107 -7376.7383 294.1438 -9101.9490 -7360.3386 299.6690 332.2332 371.6800 30068.1222 214.5660 291.3341
ENERGY: 1200000 10.3987 17.1808 17.6405 0.0000 -10646.6348 1405.5239 0.0000 0.0000 1750.8997 -7444.9912 298.5237 -9195.8909 -7369.8078 300.1086 -649.6515 -563.3929 30236.6766 133.5698 197.8037
ENERGY: 1500000 8.4756 18.8811 20.1317 0.0000 -10573.3111 1397.5216 0.0000 0.0000 1762.4478 -7365.8534 300.4926 -9128.3012 -7362.7182 300.3290 -42.3608 56.1027 30021.2525 44.6829 108.7706
TCL: Running FEP window  10: Lambda1 0.44999999999999996 Lambda2 0.49999999999999994 [dLambda 0.04999999999999999]
TCL: Setting parameter firsttimestep to 0
TCL: Setting parameter alchLambda to 0.44999999999999996
Info: NONBONDED TABLE R-SQUARED SPACING: 0.0625
Info: NONBONDED TABLE SIZE: 705 POINTS
TCL: Setting parameter alchLambda2 to 0.49999999999999994
Info: NONBONDED TABLE R-SQUARED SPACING: 0.0625
Info: NONBONDED TABLE SIZE: 705 POINTS
TCL: Running for 1500000 steps
ETITLE: TS BOND ANGLE DIHED IMPRP ELECT VDW BOUNDARY MISC KINETIC TOTAL TEMP POTENTIAL TOTALAVG TEMPAVG PRESSURE GPRESSURE VOLUME PRESSAVG GPRESSAVG
ENERGY: 0 8.4755 18.8811 20.1317 0.0000 -10573.3110 1396.6757 0.0000 0.0000 1761.5919 -7367.5550 300.3467 -9129.1469 -7367.5550 300.3467 -24.2657 61.6834 30021.2525 -24.2657 61.6834
ENERGY: 300000 5.5684 16.7849 19.0605 0.0000 -10670.8077 1436.6652 0.0000 0.0000 1770.9427 -7421.7859 301.9410 -9192.7286 -7374.5803 300.2078 123.7923 174.0168 29919.6793 398.0159 448.1876
ENERGY: 600000 7.6625 9.7113 21.3627 0.0000 -10596.2316 1430.3649 0.0000 0.0000 1726.6397 -7400.4906 294.3875 -9127.1302 -7377.8803 298.5049 -259.0548 -232.3509 30285.7800 158.7196 201.0745
ENERGY: 900000 7.7854 12.9981 19.1752 0.0000 -10637.3095 1461.3026 0.0000 0.0000 1795.1431 -7340.9050 306.0671 -9136.0481 -7367.1909 298.8867 397.8948 446.7062 30268.8711 219.5813 255.6916
ENERGY: 1200000 12.1384 16.3148 19.2414 0.0000 -10655.4450 1411.8893 0.0000 0.0000 1782.6350 -7413.2261 303.9345 -9195.8611 -7359.2753 299.9046 -233.6468 -112.7100 30334.8687 157.3957 200.4978
ENERGY: 1500000 7.2971 14.4121 19.1549 0.0000 -10622.3438 1403.2902 0.0000 0.0000 1697.7265 -7480.4629 289.4578 -9178.1894 -7363.3012 298.9895 -312.5673 -254.2945 29972.7415 81.9895 125.2119
TCL: Running FEP window  11: Lambda1 0.49999999999999994 Lambda2 0.5499999999999999 [dLambda 0.04999999999999999]
TCL: Setting parameter firsttimestep to 0
TCL: Setting parameter alchLambda to 0.49999999999999994
Info: NONBONDED TABLE R-SQUARED SPACING: 0.0625
Info: NONBONDED TABLE SIZE: 705 POINTS
TCL: Setting parameter alchLambda2 to 0.5499999999999999
Info: NONBONDED TABLE R-SQUARED SPACING: 0.0625
Info: NONBONDED TABLE SIZE: 705 POINTS
TCL: Running for 1500000 steps
ETITLE: TS BOND ANGLE DIHED IMPRP ELECT VDW BOUNDARY MISC KINETIC TOTAL TEMP POTENTIAL TOTALAVG TEMPAVG PRESSURE GPRESSURE VOLUME PRESSAVG GPRESSAVG
ENERGY: 0 7.2971 14.4121 19.1549 0.0000 -10622.3420 1403.0108 0.0000 0.0000 1696.8615 -7481.6056 289.3104 -9178.4670 -7481.6056 289.3104 -344.3628 -242.2586 29972.7415 -344.3628 -242.2586
ENERGY: 300000 9.1289 18.0970 17.1495 0.0000 -10504.9180 1350.0529 0.0000 0.0000 1820.0572 -7290.4325 310.3149 -9110.4897 -7387.3399 299.1126 -372.2355 -360.6103 30335.8865 -284.3043 -219.5800
ENERGY: 600000 5.6507 16.4106 18.2788 0.0000 -10635.2692 1486.8545 0.0000 0.0000 1763.9223 -7344.1524 300.7441 -9108.0747 -7366.6612 300.5676 610.8091 675.3977 30031.2416 -166.6890 -106.3788
ENERGY: 900000 6.8668 20.0015 20.0841 0.0000 -10455.9420 1331.0968 0.0000 0.0000 1723.7459 -7354.1469 293.8941 -9077.8928 -7352.0276 300.1149 -767.3889 -664.8385 30839.1594 -242.6013 -182.7670
ENERGY: 1200000 10.6336 17.9395 19.4019 0.0000 -10599.4360 1379.0941 0.0000 0.0000 1760.4513 -7411.9156 300.1523 -9172.3669 -7352.2479 300.2162 -737.9125 -677.4311 30215.1618 -313.8496 -259.4274
ENERGY: 1500000 10.9065 15.7440 24.4123 0.0000 -10601.2824 1408.4724 0.0000 0.0000 1718.6865 -7423.0608 293.0315 -9141.7473 -7359.8527 299.9966 -261.7347 -161.8843 29884.5574 -294.1955 -234.2942
TCL: Running FEP window  12: Lambda1 0.5499999999999999 Lambda2 0.6    [dLambda 0.050000000000000044]
TCL: Setting parameter firsttimestep to 0
TCL: Setting parameter alchLambda to 0.5499999999999999
Info: NONBONDED TABLE R-SQUARED SPACING: 0.0625
Info: NONBONDED TABLE SIZE: 705 POINTS
TCL: Setting parameter alchLambda2 to 0.6
Info: NONBONDED TABLE R-SQUARED SPACING: 0.0625
Info: NONBONDED TABLE SIZE: 705 POINTS
TCL: Running for 1500000 steps
ETITLE: TS BOND ANGLE DIHED IMPRP ELECT VDW BOUNDARY MISC KINETIC TOTAL TEMP POTENTIAL TOTALAVG TEMPAVG PRESSURE GPRESSURE VOLUME PRESSAVG GPRESSAVG
ENERGY: 0 10.9065 15.7440 24.4123 0.0000 -10601.2668 1408.8564 0.0000 0.0000 1717.8272 -7423.5206 292.8850 -9141.3478 -7423.5206 292.8850 -222.3640 -138.5817 29884.5574 -222.3640 -138.5817
ENERGY: 300000 9.8801 15.5619 20.4129 0.0000 -10535.5505 1399.9356 0.0000 0.0000 1719.4353 -7370.3246 293.1591 -9089.7599 -7369.6179 292.9213 -105.3163 -81.9183 30475.1631 -219.2835 -171.8834
ENERGY: 600000 6.5656 19.0651 19.7539 0.0000 -10504.2597 1391.0752 0.0000 0.0000 1756.7621 -7311.0377 299.5233 -9067.7999 -7352.4284 296.3829 -296.5965 -234.4871 30524.9979 -196.0084 -150.6388
ENERGY: 900000 6.4249 15.5119 19.3840 0.0000 -10524.0823 1336.0111 0.0000 0.0000 1781.4505 -7365.2999 303.7326 -9146.7504 -7356.3466 297.8567 -1114.4929 -986.7449 30762.3327 -290.4505 -230.8770
ENERGY: 1200000 5.6249 14.9826 21.4308 0.0000 -10472.4810 1331.6779 0.0000 0.0000 1750.4323 -7348.3325 298.4440 -9098.7648 -7350.3072 298.2323 -540.1655 -459.2311 30289.4700 -262.6714 -197.5478
ENERGY: 1500000 3.5749 21.6481 19.4764 0.0000 -10552.9607 1383.6304 0.0000 0.0000 1768.2634 -7356.3675 301.4842 -9124.6309 -7354.5974 298.2832 -407.8997 -318.1411 30542.7779 -267.7606 -203.3660
TCL: Running FEP window  13: Lambda1 0.6    Lambda2 0.65   [dLambda 0.050000000000000044]
TCL: Setting parameter firsttimestep to 0
TCL: Setting parameter alchLambda to 0.6
Info: NONBONDED TABLE R-SQUARED SPACING: 0.0625
Info: NONBONDED TABLE SIZE: 705 POINTS
TCL: Setting parameter alchLambda2 to 0.65
Info: NONBONDED TABLE R-SQUARED SPACING: 0.0625
Info: NONBONDED TABLE SIZE: 705 POINTS
TCL: Running for 1500000 steps
ETITLE: TS BOND ANGLE DIHED IMPRP ELECT VDW BOUNDARY MISC KINETIC TOTAL TEMP POTENTIAL TOTALAVG TEMPAVG PRESSURE GPRESSURE VOLUME PRESSAVG GPRESSAVG
ENERGY: 0 3.5749 21.6481 19.4764 0.0000 -10552.9558 1382.9154 0.0000 0.0000 1767.4109 -7357.9301 301.3388 -9125.3410 -7357.9301 301.3388 -389.6887 -309.5341 30542.7779 -389.6887 -309.5341
ENERGY: 300000 7.3252 18.0559 19.4895 0.0000 -10562.9383 1429.7560 0.0000 0.0000 1814.6100 -7273.7017 309.3862 -9088.3117 -7307.3653 303.5479 378.9271 373.7293 29963.3850 -260.4444 -210.3488
ENERGY: 600000 7.2668 12.9337 20.9602 0.0000 -10632.5425 1461.8403 0.0000 0.0000 1739.7329 -7389.8085 296.6198 -9129.5414 -7341.0803 301.1415 132.6312 158.4725 30512.5161 -317.6740 -279.5896
ENERGY: 900000 8.0151 17.6162 17.8087 0.0000 -10583.8173 1433.0825 0.0000 0.0000 1758.7575 -7348.5373 299.8635 -9107.2948 -7345.1713 301.5477 112.9538 135.6078 30655.7967 -236.2766 -199.3775
ENERGY: 1200000 10.4659 16.8584 22.1543 0.0000 -10547.7778 1326.4812 0.0000 0.0000 1746.6097 -7425.2082 297.7923 -9171.8180 -7348.4085 301.5820 -848.7574 -860.4128 30374.0137 -296.3002 -253.2360
ENERGY: 1500000 7.1801 17.1718 18.6916 0.0000 -10703.7787 1443.2122 0.0000 0.0000 1757.7079 -7459.8151 299.6845 -9217.5230 -7361.5041 300.9417 198.2635 200.1340 29754.9393 -263.0823 -220.9349
TCL: Running FEP window  14: Lambda1 0.65   Lambda2 0.7000000000000001 [dLambda 0.050000000000000044]
TCL: Setting parameter firsttimestep to 0
TCL: Setting parameter alchLambda to 0.65
Info: NONBONDED TABLE R-SQUARED SPACING: 0.0625
Info: NONBONDED TABLE SIZE: 705 POINTS
TCL: Setting parameter alchLambda2 to 0.7000000000000001
Info: NONBONDED TABLE R-SQUARED SPACING: 0.0625
Info: NONBONDED TABLE SIZE: 705 POINTS
TCL: Running for 1500000 steps
ETITLE: TS BOND ANGLE DIHED IMPRP ELECT VDW BOUNDARY MISC KINETIC TOTAL TEMP POTENTIAL TOTALAVG TEMPAVG PRESSURE GPRESSURE VOLUME PRESSAVG GPRESSAVG
ENERGY: 0 7.1801 17.1718 18.6916 0.0000 -10704.1485 1443.3262 0.0000 0.0000 1756.8770 -7460.9017 299.5429 -9217.7788 -7460.9017 299.5429 142.9142 221.2318 29754.9393 142.9142 221.2318
ENERGY: 300000 8.6078 17.0009 18.5913 0.0000 -10643.3892 1500.9276 0.0000 0.0000 1749.3437 -7348.9179 298.2584 -9098.2615 -7390.7370 296.2413 655.5230 709.4978 30104.5213 183.4470 242.8772
ENERGY: 600000 4.8544 15.1766 19.0289 0.0000 -10771.2177 1529.5416 0.0000 0.0000 1795.3981 -7407.2183 306.1106 -9202.6163 -7391.6555 296.5912 906.0720 954.8273 29895.7954 19.8764 77.6698
ENERGY: 900000 3.1108 18.2035 18.4388 0.0000 -10727.1011 1523.2053 0.0000 0.0000 1741.2633 -7422.8794 296.8808 -9164.1427 -7389.3234 297.8121 735.8722 774.6893 30047.8004 152.3528 203.8473
ENERGY: 1200000 8.2063 18.5881 19.6665 0.0000 -10631.8289 1388.6221 0.0000 0.0000 1798.6892 -7398.0568 306.6717 -9196.7460 -7382.9904 299.1444 -0.2298 78.1575 29757.6327 111.5964 168.2683
ENERGY: 1500000 10.1378 19.0859 20.6814 0.0000 -10501.7900 1388.3021 0.0000 0.0000 1703.7705 -7359.8123 290.4883 -9063.5828 -7382.7477 298.4670 -513.5910 -446.3148 30789.7114 82.4382 137.6239
TCL: Running FEP window  15: Lambda1 0.7000000000000001 Lambda2 0.7500000000000001 [dLambda 0.050000000000000044]
TCL: Setting parameter firsttimestep to 0
TCL: Setting parameter alchLambda to 0.7000000000000001
Info: NONBONDED TABLE R-SQUARED SPACING: 0.0625
Info: NONBONDED TABLE SIZE: 705 POINTS
TCL: Setting parameter alchLambda2 to 0.7500000000000001
Info: NONBONDED TABLE R-SQUARED SPACING: 0.0625
Info: NONBONDED TABLE SIZE: 705 POINTS
TCL: Running for 1500000 steps
ETITLE: TS BOND ANGLE DIHED IMPRP ELECT VDW BOUNDARY MISC KINETIC TOTAL TEMP POTENTIAL TOTALAVG TEMPAVG PRESSURE GPRESSURE VOLUME PRESSAVG GPRESSAVG
ENERGY: 0 10.1378 19.0859 20.6814 0.0000 -10502.4322 1388.4148 0.0000 0.0000 1702.8905 -7361.2219 290.3383 -9064.1124 -7361.2219 290.3383 -499.4664 -431.0674 30789.7114 -499.4664 -431.0674
ENERGY: 300000 4.9345 19.3583 17.9912 0.0000 -10597.4839 1393.8625 0.0000 0.0000 1737.3588 -7423.9786 296.2151 -9161.3374 -7370.8311 297.8869 -291.3136 -275.3752 30203.9649 -152.9700 -79.4959
ENERGY: 600000 8.6853 17.2721 19.5416 0.0000 -10567.4379 1428.7073 0.0000 0.0000 1740.3266 -7352.9051 296.7210 -9093.2317 -7355.5440 299.0143 424.1470 440.4210 29872.6871 69.2676 127.2332
ENERGY: 900000 6.1757 9.9951 19.7034 0.0000 -10633.3376 1460.0096 0.0000 0.0000 1782.3429 -7355.1109 303.8847 -9137.4538 -7356.1965 299.0712 479.6415 551.5185 29984.9726 208.5101 265.7650
ENERGY: 1200000 9.2300 15.0104 20.4427 0.0000 -10517.2780 1429.2030 0.0000 0.0000 1760.1794 -7283.2124 300.1059 -9043.3919 -7359.8057 299.0757 -57.8522 -30.8910 30787.0023 190.6618 236.9413
ENERGY: 1500000 6.9294 14.6560 18.3905 0.0000 -10544.1282 1411.1881 0.0000 0.0000 1769.3002 -7323.6639 301.6610 -9092.9642 -7356.6014 299.7130 138.3233 250.5695 30122.7140 177.8503 232.1817
TCL: Running FEP window  16: Lambda1 0.7500000000000001 Lambda2 0.8000000000000002 [dLambda 0.050000000000000044]
TCL: Setting parameter firsttimestep to 0
TCL: Setting parameter alchLambda to 0.7500000000000001
Info: NONBONDED TABLE R-SQUARED SPACING: 0.0625
Info: NONBONDED TABLE SIZE: 705 POINTS
TCL: Setting parameter alchLambda2 to 0.8000000000000002
Info: NONBONDED TABLE R-SQUARED SPACING: 0.0625
Info: NONBONDED TABLE SIZE: 705 POINTS
TCL: Running for 1500000 steps
ETITLE: TS BOND ANGLE DIHED IMPRP ELECT VDW BOUNDARY MISC KINETIC TOTAL TEMP POTENTIAL TOTALAVG TEMPAVG PRESSURE GPRESSURE VOLUME PRESSAVG GPRESSAVG
ENERGY: 0 6.9294 14.6560 18.3905 0.0000 -10544.6222 1411.1546 0.0000 0.0000 1768.4506 -7325.0411 301.5161 -9093.4917 -7325.0411 301.5161 192.9161 264.8183 30122.7140 192.9161 264.8183
ENERGY: 300000 6.7624 15.6271 17.6388 0.0000 -10562.3063 1378.9352 0.0000 0.0000 1832.6386 -7310.7041 312.4600 -9143.3427 -7329.9915 301.8236 -248.6319 -168.8382 30373.7184 -214.4859 -167.7952
ENERGY: 600000 11.2455 17.3170 21.3855 0.0000 -10576.4932 1404.1498 0.0000 0.0000 1776.3895 -7346.0058 302.8697 -9122.3953 -7350.1438 301.8797 32.4558 -0.4484 29860.6432 -83.0853 -37.2297
ENERGY: 900000 9.7136 14.4881 22.8055 0.0000 -10595.4638 1430.8040 0.0000 0.0000 1744.1882 -7373.4643 297.3794 -9117.6525 -7345.7445 301.9780 487.1118 520.1698 29686.7229 -94.3442 -39.5610
ENERGY: 1200000 11.4003 13.2328 19.4575 0.0000 -10619.2439 1465.4684 0.0000 0.0000 1829.4807 -7280.2042 311.9216 -9109.6849 -7336.8286 301.9719 413.7821 456.3334 30058.1515 -119.4503 -66.4876
ENERGY: 1500000 5.0952 19.1285 17.9231 0.0000 -10534.8102 1435.6999 0.0000 0.0000 1796.0285 -7260.9350 306.2181 -9056.9635 -7334.6545 302.6401 495.5544 555.2197 30330.6150 -101.4768 -45.9606
TCL: Running FEP window  17: Lambda1 0.8000000000000002 Lambda2 0.8500000000000002 [dLambda 0.050000000000000044]
TCL: Setting parameter firsttimestep to 0
TCL: Setting parameter alchLambda to 0.8000000000000002
Info: NONBONDED TABLE R-SQUARED SPACING: 0.0625
Info: NONBONDED TABLE SIZE: 705 POINTS
TCL: Setting parameter alchLambda2 to 0.8500000000000002
Info: NONBONDED TABLE R-SQUARED SPACING: 0.0625
Info: NONBONDED TABLE SIZE: 705 POINTS
TCL: Running for 1500000 steps
ETITLE: TS BOND ANGLE DIHED IMPRP ELECT VDW BOUNDARY MISC KINETIC TOTAL TEMP POTENTIAL TOTALAVG TEMPAVG PRESSURE GPRESSURE VOLUME PRESSAVG GPRESSAVG
ENERGY: 0 5.0952 19.1285 17.9231 0.0000 -10535.6343 1437.6684 0.0000 0.0000 1795.1509 -7260.6682 306.0684 -9055.8191 -7260.6682 306.0684 528.2233 602.8934 30330.6150 528.2233 602.8934
ENERGY: 300000 12.4474 12.3051 19.8487 0.0000 -10534.1082 1399.2878 0.0000 0.0000 1742.9077 -7347.3115 297.1611 -9090.2191 -7335.3102 298.6308 -78.3037 29.8324 30612.8197 -153.3745 -85.0819
ENERGY: 600000 8.2056 14.3734 24.6298 0.0000 -10557.6491 1404.6470 0.0000 0.0000 1806.7158 -7299.0775 308.0402 -9105.7933 -7340.4681 299.3702 -285.5582 -238.0164 31113.3517 -128.8492 -64.4313
ENERGY: 900000 9.7143 13.8615 21.6416 0.0000 -10595.2902 1384.7871 0.0000 0.0000 1748.4488 -7416.8369 298.1059 -9165.2858 -7353.4487 298.6689 -534.8744 -430.4740 30169.1368 -55.8347 16.7622
ENERGY: 1200000 6.7427 13.6796 19.8196 0.0000 -10552.9758 1398.3504 0.0000 0.0000 1802.0752 -7312.3082 307.2490 -9114.3835 -7350.2068 298.7115 87.9103 92.7352 30322.7044 -87.8378 -21.8160
ENERGY: 1500000 6.6249 15.2005 20.1702 0.0000 -10701.4146 1433.7571 0.0000 0.0000 1776.1954 -7449.4665 302.8366 -9225.6619 -7356.5563 298.8731 -153.1584 -41.0557 30158.9689 -132.2280 -64.7298
TCL: Running FEP window  18: Lambda1 0.8500000000000002 Lambda2 0.9000000000000002 [dLambda 0.050000000000000044]
TCL: Setting parameter firsttimestep to 0
TCL: Setting parameter alchLambda to 0.8500000000000002
Info: NONBONDED TABLE R-SQUARED SPACING: 0.0625
Info: NONBONDED TABLE SIZE: 705 POINTS
TCL: Setting parameter alchLambda2 to 0.9000000000000002
Info: NONBONDED TABLE R-SQUARED SPACING: 0.0625
Info: NONBONDED TABLE SIZE: 705 POINTS
TCL: Running for 1500000 steps
ETITLE: TS BOND ANGLE DIHED IMPRP ELECT VDW BOUNDARY MISC KINETIC TOTAL TEMP POTENTIAL TOTALAVG TEMPAVG PRESSURE GPRESSURE VOLUME PRESSAVG GPRESSAVG
ENERGY: 0 6.6249 15.2005 20.1702 0.0000 -10701.9000 1432.8034 0.0000 0.0000 1775.2850 -7451.8160 302.6814 -9227.1010 -7451.8160 302.6814 -126.3960 -36.8174 30158.9689 -126.3960 -36.8174
ENERGY: 300000 6.2496 16.7087 22.4302 0.0000 -10739.9469 1468.2964 0.0000 0.0000 1753.0173 -7473.2447 298.8848 -9226.2620 -7447.4625 297.0025 229.7968 345.9802 30013.3197 -53.0582 28.5157
ENERGY: 600000 4.0254 20.0805 23.7463 0.0000 -10540.9919 1408.3939 0.0000 0.0000 1750.2269 -7334.5189 298.4090 -9084.7458 -7431.8405 297.1499 176.5065 254.2212 30403.0607 -38.0424 27.2161
ENERGY: 900000 6.6372 18.8496 19.9296 0.0000 -10540.3700 1345.2252 0.0000 0.0000 1703.2456 -7446.4826 290.3988 -9149.7282 -7413.8690 299.1301 -688.0974 -608.8109 30155.7999 2.5060 62.5640
ENERGY: 1200000 8.0391 18.2059 19.3584 0.0000 -10624.0296 1413.3816 0.0000 0.0000 1715.5382 -7449.5064 292.4947 -9165.0445 -7398.5916 299.3109 -31.6483 17.8011 30174.1511 -36.6172 20.1521
ENERGY: 1500000 6.2409 17.6537 18.6104 0.0000 -10521.4750 1391.6587 0.0000 0.0000 1821.7387 -7265.5727 310.6016 -9087.3113 -7390.8757 299.7856 -244.5292 -171.0382 30629.7907 -60.6911 -1.9246
TCL: Running FEP window  19: Lambda1 0.9000000000000002 Lambda2 0.9500000000000003 [dLambda 0.050000000000000044]
TCL: Setting parameter firsttimestep to 0
TCL: Setting parameter alchLambda to 0.9000000000000002
Info: NONBONDED TABLE R-SQUARED SPACING: 0.0625
Info: NONBONDED TABLE SIZE: 705 POINTS
TCL: Setting parameter alchLambda2 to 0.9500000000000003
Info: NONBONDED TABLE R-SQUARED SPACING: 0.0625
Info: NONBONDED TABLE SIZE: 705 POINTS
TCL: Running for 1500000 steps
ETITLE: TS BOND ANGLE DIHED IMPRP ELECT VDW BOUNDARY MISC KINETIC TOTAL TEMP POTENTIAL TOTALAVG TEMPAVG PRESSURE GPRESSURE VOLUME PRESSAVG GPRESSAVG
ENERGY: 0 6.2409 17.6537 18.6104 0.0000 -10522.0789 1392.6773 0.0000 0.0000 1820.8876 -7266.0091 310.4565 -9086.8967 -7266.0091 310.4565 -202.0626 -127.4931 30629.7907 -202.0626 -127.4931
ENERGY: 300000 6.4549 15.4390 18.0520 0.0000 -10521.4652 1311.1435 0.0000 0.0000 1737.8979 -7432.4780 296.3070 -9170.3759 -7370.5027 298.8048 -715.8421 -670.3737 29970.8263 -47.0665 -11.0301
ENERGY: 600000 7.6910 22.0925 19.2375 0.0000 -10524.3670 1392.5346 0.0000 0.0000 1754.0734 -7328.7379 299.0648 -9082.8114 -7356.6966 300.1662 102.9977 139.3571 30281.3372 -64.5584 -15.6792
ENERGY: 900000 4.5371 13.0750 20.0880 0.0000 -10637.1176 1462.3121 0.0000 0.0000 1766.9387 -7370.1666 301.2583 -9137.1053 -7362.1261 300.6321 116.9919 159.1789 30830.6795 -50.4542 -2.0643
ENERGY: 1200000 4.6182 18.4844 16.7308 0.0000 -10522.1030 1356.5765 0.0000 0.0000 1795.7230 -7329.9701 306.1660 -9125.6931 -7370.6097 300.6834 -382.4500 -415.8079 30357.5452 17.9547 65.0389
ENERGY: 1500000 8.5776 11.4154 18.2682 0.0000 -10577.0421 1442.1758 0.0000 0.0000 1783.1744 -7313.4306 304.0265 -9096.6050 -7364.1728 300.7315 225.7330 288.8037 30203.7210 43.4369 97.9016
TCL: Running FEP window  20: Lambda1 0.9500000000000003 Lambda2 1.0    [dLambda 0.04999999999999971]
TCL: Setting parameter firsttimestep to 0
TCL: Setting parameter alchLambda to 0.9500000000000003
Info: NONBONDED TABLE R-SQUARED SPACING: 0.0625
Info: NONBONDED TABLE SIZE: 705 POINTS
TCL: Setting parameter alchLambda2 to 1.0
Info: NONBONDED TABLE R-SQUARED SPACING: 0.0625
Info: NONBONDED TABLE SIZE: 705 POINTS
TCL: Running for 1500000 steps
ETITLE: TS BOND ANGLE DIHED IMPRP ELECT VDW BOUNDARY MISC KINETIC TOTAL TEMP POTENTIAL TOTALAVG TEMPAVG PRESSURE GPRESSURE VOLUME PRESSAVG GPRESSAVG
ENERGY: 0 8.5776 11.4154 18.2682 0.0000 -10577.3290 1442.4166 0.0000 0.0000 1782.2799 -7314.3713 303.8740 -9096.6512 -7314.3713 303.8740 220.8694 314.6160 30203.7210 220.8694 314.6160
ENERGY: 300000 6.7502 19.3209 19.2332 0.0000 -10532.3500 1427.8874 0.0000 0.0000 1728.6902 -7330.4681 294.7371 -9059.1583 -7327.9007 298.7883 678.6275 723.4613 30025.7988 4.3469 56.5947
ENERGY: 600000 5.2675 15.7249 19.6344 0.0000 -10509.1104 1395.9859 0.0000 0.0000 1756.0892 -7316.4086 299.4085 -9072.4977 -7337.1150 299.6640 192.1768 351.2064 30385.3492 -1.6208 62.8246
ENERGY: 900000 8.0217 9.3390 18.4855 0.0000 -10442.6009 1325.5494 0.0000 0.0000 1725.5387 -7355.6666 294.1998 -9081.2053 -7361.1171 297.7493 -603.3699 -553.8635 30499.1594 -104.9040 -46.8167
ENERGY: 1200000 5.7932 19.7174 17.3360 0.0000 -10723.4415 1490.2102 0.0000 0.0000 1742.8326 -7447.5521 297.1483 -9190.3847 -7360.3730 298.0264 367.8364 501.7626 29928.8095 -46.5662 12.0582
ENERGY: 1500000 11.0867 14.5120 17.8358 0.0000 -10570.4755 1421.5538 0.0000 0.0000 1796.2568 -7309.2304 306.2570 -9105.4872 -7352.5458 298.6997 226.6762 309.9348 30301.0161 -149.0384 -89.9463
TCL: Exiting due to exit command.
