Info: SIMULATION PARAMETERS:
Info: TIMESTEP               2
Info: NUMBER OF STEPS        0
Info: STEPS PER CYCLE        10
Info: PERIODIC CELL BASIS 1  31.5132 0 0
Info: PERIODIC CELL BASIS 2  0 30.9662 0
Info: PERIODIC CELL BASIS 3  0 0 31.3666
Info: PERIODIC CELL CENTER   0 0 0
Info: WRAPPING WATERS AROUND PERIODIC BOUNDARIES ON OUTPUT.
Info: WRAPPING ALL CLUSTERS AROUND PERIODIC BOUNDARIES ON OUTPUT.
Info: FIRST LDB TIMESTEP     50
Info: LAST LDB TIMESTEP     -1
Info: HOM BACKGROUND SCALING 1
Info: PME BACKGROUND SCALING 1
Info: MIN ATOMS PER PATCH    40
Info: EMPTY PATCH LOAD       40 ATOMS
Info: VELOCITY FILE          mobley_8916409_equil.vel
Info: CENTER OF MASS MOVING INITIALLY? NO
Info: DIELECTRIC             1
Info: EXCLUDE                SCALED ONE-FOUR
Info: 1-4 ELECTROSTATICS SCALED BY 0.833333
Info: MODIFIED 1-4 VDW PARAMETERS WILL BE USED
Info: DCD FILENAME           mobley_8916409_prod.dcd
Info: DCD FREQUENCY          100000
Info: DCD FIRST STEP         100000
Info: DCD FILE WILL CONTAIN UNIT CELL DATA
Info: XST FILENAME           mobley_8916409_prod.xst
Info: XST FREQUENCY          100000
Info: NO VELOCITY DCD OUTPUT
Info: NO FORCE DCD OUTPUT
Info: OUTPUT FILENAME        mobley_8916409_prod
Info: BINARY OUTPUT FILES WILL BE USED
Info: RESTART FILENAME       mobley_8916409_prod.restart
Info: RESTART FREQUENCY      100000
Info: BINARY RESTART FILES WILL BE USED
Info: CUTOFF                 9
Info: PAIRLIST DISTANCE      11
Info: PAIRLIST SHRINK RATE   0.01
Info: PAIRLIST GROW RATE     0.01
Info: PAIRLIST TRIGGER       0.3
Info: PAIRLISTS PER CYCLE    2
Info: PAIRLISTS ENABLED
Info: MARGIN                 2
Info: HYDROGEN GROUP CUTOFF  2.5
Info: PATCH DIMENSION        15.5
Info: ENERGY OUTPUT STEPS    100000
Info: ENERGY EVALUATION STEPS    100000
Info: OUTPUT ENERGY PRECISION 4
Info: CROSSTERM ENERGY INCLUDED IN DIHEDRAL
Info: TIMING OUTPUT STEPS    1000000
Info: PRESSURE OUTPUT STEPS  100000
Info: ALCHEMICAL FEP ON
Info: FEP CURRENT LAMBDA VALUE     1
Info: FEP COMPARISON LAMBDA VALUE  0.95
Info: FEP INTRA-ALCHEMICAL NON-BONDED INTERACTIONS WILL BE RETAINED
Info: FEP INTRA-ALCHEMICAL BONDED INTERACTIONS WILL BE RETAINED
Info: FEP VDW SHIFTING COEFFICIENT 5
Info: FEP ELEC. ACTIVE FOR ANNIHILATED PARTICLES BETWEEN LAMBDA = 0 AND LAMBDA = 0.5
Info: FEP ELEC. ACTIVE FOR EXNIHILATED PARTICLES BETWEEN LAMBDA = 0.5 AND LAMBDA = 1
Info: FEP VDW ACTIVE FOR ANNIHILATED PARTICLES BETWEEN LAMBDA = 0 AND LAMBDA = 1
Info: FEP VDW ACTIVE FOR EXNIHILATED PARTICLES BETWEEN LAMBDA = 0 AND LAMBDA = 1
Info: FEP BOND ACTIVE FOR ANNIHILATED PARTICLES BETWEEN LAMBDA = 1 AND LAMBDA = 1
Info: FEP BOND ACTIVE FOR EXNIHILATED PARTICLES BETWEEN LAMBDA = 0 AND LAMBDA = 0
Info: LANGEVIN DYNAMICS ACTIVE
Info: LANGEVIN TEMPERATURE   300
Info: LANGEVIN USING BBK INTEGRATOR
Info: LANGEVIN DAMPING COEFFICIENT IS 1 INVERSE PS
Info: LANGEVIN DYNAMICS APPLIED TO HYDROGENS
Info: LANGEVIN PISTON PRESSURE CONTROL ACTIVE
Info:        TARGET PRESSURE IS 1.01325 BAR
Info:     OSCILLATION PERIOD IS 50 FS
Info:             DECAY TIME IS 25 FS
Info:     PISTON TEMPERATURE IS 300 K
Info:       PRESSURE CONTROL IS GROUP-BASED
Info:    INITIAL STRAIN RATE IS -0.000406914 -0.000406914 -0.000406914
Info:       CELL FLUCTUATION IS ISOTROPIC
Info: PARTICLE MESH EWALD (PME) ACTIVE
Info: PME TOLERANCE               1e-06
Info: PME EWALD COEFFICIENT       0.348832
Info: PME INTERPOLATION ORDER     4
Info: PME GRID DIMENSIONS         32 32 32
Info: PME MAXIMUM GRID SPACING    1
Info: PME CALCULATION WILL BE PERFORMED ON GPU
Info: FULL ELECTROSTATIC EVALUATION FREQUENCY      2
Info: USING VERLET I (r-RESPA) MTS SCHEME.
Info: C1 SPLITTING OF LONG RANGE ELECTROSTATICS
Info: PLACING ATOMS IN PATCHES BY HYDROGEN GROUPS
Info: RIGID BONDS TO HYDROGEN : ALL
Info:         ERROR TOLERANCE : 1e-08
Info:          MAX ITERATIONS : 100
Info: RIGID WATER USING SETTLE ALGORITHM
Info: RANDOM NUMBER SEED     1744101359
Info: USE HYDROGEN BONDS?    NO
Info: Using AMBER format force field!
Info: AMBER PARM FILE        mobley_8916409.prmtop
Info: COORDINATE PDB         mobley_8916409.pdb
Info: Exclusions will be read from PARM file!
Info: SCNB (VDW SCALING)     2
Info: USING ARITHMETIC MEAN TO COMBINE L-J SIGMA PARAMETERS
Info: BINARY COORDINATES     mobley_8916409_equil.coor
Info: SUMMARY OF PARAMETERS:
Info: 13 BONDS
Info: 22 ANGLES
Info:   22 HARMONIC
Info:   0 COSINE-BASED
Info: 20 DIHEDRAL
Info: 0 IMPROPER
Info: 0 CROSSTERM
Info: 0 VDW
Info: 55 VDW_PAIRS
Info: 0 NBTHOLE_PAIRS
Info: To read alchdata from file: mobley_8916409.pdb
Info: To read alchflag data from column: 5
Info: STRUCTURE SUMMARY:
Info: 2957 ATOMS
Info: 2956 BONDS
Info: 65 ANGLES
Info: 91 DIHEDRALS
Info: 0 IMPROPERS
Info: 0 CROSSTERMS
Info: 3088 EXCLUSIONS
Info: 2938 RIGID BONDS
Info: ALCH: 0 ATOMS TO DISAPPEAR IN FINAL STATE
Info: ALCH: 38 ATOMS TO APPEAR IN FINAL STATE
Info: 5933 DEGREES OF FREEDOM
Info: 992 HYDROGEN GROUPS
Info: 4 ATOMS IN LARGEST HYDROGEN GROUP
Info: 992 MIGRATION GROUPS
Info: 4 ATOMS IN LARGEST MIGRATION GROUP
Info: TOTAL MASS = 17859.9 amu
Info: TOTAL CHARGE = 7.82311e-08 e
Info: MASS DENSITY = 0.968928 g/cm^3
Info: ATOM DENSITY = 0.096606 atoms/A^3
Info: ADDED 0 IMPLICIT EXCLUSIONS
Info: NONBONDED TABLE R-SQUARED SPACING: 0.0625
Info: NONBONDED TABLE SIZE: 705 POINTS
Info: REMOVING COM VELOCITY 0.0317964 -0.0867072 -0.0770264
Info: Use 3D box decompostion in PME FFT.
Info: Updated CUDA force table with 4096 elements.
Info: Updated CUDA LJ table with 10 x 10 elements.
Info: Found 41 unique exclusion lists needing 172 bytes
TCL: Running for 1500000 steps
ETITLE: TS BOND ANGLE DIHED IMPRP ELECT VDW BOUNDARY MISC KINETIC TOTAL TEMP POTENTIAL TOTALAVG TEMPAVG PRESSURE GPRESSURE VOLUME PRESSAVG GPRESSAVG
ENERGY: 0 3.7646 19.2160 22.6556 0.0000 -10644.9796 1387.9816 0.0000 0.0000 1755.5869 -7455.7749 297.8094 -9211.3618 -7455.7749 297.8094 -226.3656 -162.5024 30608.8567 -226.3656 -162.5024
ENERGY: 300000 9.1792 23.7158 24.5546 0.0000 -10607.7005 1350.9877 0.0000 0.0000 1777.1147 -7422.1485 301.4612 -9199.2632 -7422.5609 303.7586 -500.6579 -459.0513 30540.9470 -363.0318 -303.7654
ENERGY: 600000 5.8388 16.7220 26.7857 0.0000 -10725.9121 1421.1548 0.0000 0.0000 1753.2378 -7502.1730 297.4109 -9255.4109 -7439.6802 302.0774 -250.0288 -179.6206 30844.4681 -349.5387 -280.6585
ENERGY: 900000 7.1782 17.5469 23.7001 0.0000 -10848.2676 1501.2222 0.0000 0.0000 1781.1644 -7517.4557 302.1482 -9298.6201 -7449.9816 301.7241 549.6430 595.6511 30566.3160 -260.0780 -197.7336
ENERGY: 1200000 2.4436 25.8959 19.3921 0.0000 -10809.1839 1435.4921 0.0000 0.0000 1735.6767 -7590.2835 294.4319 -9325.9602 -7470.2149 301.1174 241.3563 251.3621 30135.2981 -199.3537 -139.1192
ENERGY: 1500000 4.8584 17.3723 25.1588 0.0000 -10739.8256 1440.3815 0.0000 0.0000 1744.0874 -7507.9673 295.8586 -9252.0547 -7465.7504 301.1851 326.6343 436.7025 30601.9888 -157.8356 -93.5981
TCL: Running FEP window   2: Lambda1 0.95   Lambda2 0.8999999999999999 [dLambda -0.050000000000000044]
TCL: Setting parameter firsttimestep to 0
TCL: Setting parameter alchLambda to 0.95
Info: NONBONDED TABLE R-SQUARED SPACING: 0.0625
Info: NONBONDED TABLE SIZE: 705 POINTS
TCL: Setting parameter alchLambda2 to 0.8999999999999999
Info: NONBONDED TABLE R-SQUARED SPACING: 0.0625
Info: NONBONDED TABLE SIZE: 705 POINTS
TCL: Running for 1500000 steps
ETITLE: TS BOND ANGLE DIHED IMPRP ELECT VDW BOUNDARY MISC KINETIC TOTAL TEMP POTENTIAL TOTALAVG TEMPAVG PRESSURE GPRESSURE VOLUME PRESSAVG GPRESSAVG
ENERGY: 0 4.8584 17.3723 25.1588 0.0000 -10737.3316 1440.2911 0.0000 0.0000 1743.2357 -7506.4153 295.7142 -9249.6511 -7506.4153 295.7142 328.8409 410.3031 30601.9888 328.8409 410.3031
ENERGY: 300000 6.0752 16.4058 28.4770 0.0000 -10802.1893 1404.3686 0.0000 0.0000 1771.4098 -7575.4529 300.4935 -9346.8627 -7481.8115 300.9935 -126.1766 -18.4726 30411.6917 132.9084 205.1767
ENERGY: 600000 2.0158 16.1018 24.5571 0.0000 -10693.9576 1429.0196 0.0000 0.0000 1764.2874 -7457.9760 299.2853 -9222.2633 -7475.5829 301.8429 71.0596 96.9622 30734.7571 76.5706 136.8907
ENERGY: 900000 4.2619 28.5840 26.8351 0.0000 -10749.2552 1468.4268 0.0000 0.0000 1763.3329 -7457.8146 299.1234 -9221.1475 -7476.0964 300.9054 549.2921 596.5187 30328.1043 57.9352 119.4897
ENERGY: 1200000 6.7751 14.4242 26.4325 0.0000 -10700.5374 1422.3555 0.0000 0.0000 1785.8488 -7444.7013 302.9429 -9230.5501 -7468.2978 301.0289 -68.8820 -92.1821 31078.1588 -6.0422 46.7262
ENERGY: 1500000 5.4932 15.7364 25.1133 0.0000 -10686.2853 1352.7024 0.0000 0.0000 1740.4931 -7546.7469 295.2489 -9287.2400 -7483.9191 300.2529 -611.1073 -499.6743 30391.0470 -43.6007 14.8065
TCL: Running FEP window   3: Lambda1 0.8999999999999999 Lambda2 0.8499999999999999 [dLambda -0.050000000000000044]
TCL: Setting parameter firsttimestep to 0
TCL: Setting parameter alchLambda to 0.8999999999999999
Info: NONBONDED TABLE R-SQUARED SPACING: 0.0625
Info: NONBONDED TABLE SIZE: 705 POINTS
TCL: Setting parameter alchLambda2 to 0.8499999999999999
Info: NONBONDED TABLE R-SQUARED SPACING: 0.0625
Info: NONBONDED TABLE SIZE: 705 POINTS
TCL: Running for 1500000 steps
ETITLE: TS BOND ANGLE DIHED IMPRP ELECT VDW BOUNDARY MISC KINETIC TOTAL TEMP POTENTIAL TOTALAVG TEMPAVG PRESSURE GPRESSURE VOLUME PRESSAVG GPRESSAVG
ENERGY: 0 5.4932 15.7364 25.1133 0.0000 -10683.5120 1353.3090 0.0000 0.0000 1739.6367 -7544.2233 295.1037 -9283.8600 -7544.2233 295.1037 -596.6558 -510.3522 30391.0470 -596.6558 -510.3522
ENERGY: 300000 6.9852 20.4854 24.5994 0.0000 -10769.9011 1387.7613 0.0000 0.0000 1803.3437 -7526.7261 305.9106 -9330.0698 -7496.3570 303.1805 -183.5942 -182.8367 30235.4151 63.5695 73.2918
ENERGY: 600000 6.7554 14.9933 24.2147 0.0000 -10838.3018 1562.2899 0.0000 0.0000 1788.3935 -7441.6550 303.3745 -9230.0485 -7484.3005 302.9865 926.9008 985.9624 30856.2045 212.5625 255.9840
ENERGY: 900000 4.0354 17.4731 23.2621 0.0000 -10898.0386 1497.1249 0.0000 0.0000 1800.5608 -7555.5822 305.4385 -9356.1430 -7499.1507 302.1209 221.8694 303.8436 30174.3458 41.5122 102.7145
ENERGY: 1200000 5.0667 17.3579 25.2361 0.0000 -10693.7170 1358.0242 0.0000 0.0000 1813.9007 -7474.1313 307.7015 -9288.0321 -7490.6694 301.5663 -938.2589 -844.4197 30836.7082 -48.5600 15.7362
ENERGY: 1500000 6.7856 18.7381 25.9940 0.0000 -10777.3895 1462.3441 0.0000 0.0000 1707.3627 -7556.1650 289.6289 -9263.5277 -7494.4664 300.3889 249.2000 289.5772 30585.6126 -95.5249 -30.8998
TCL: Running FEP window   4: Lambda1 0.8499999999999999 Lambda2 0.7999999999999998 [dLambda -0.050000000000000044]
TCL: Setting parameter firsttimestep to 0
TCL: Setting parameter alchLambda to 0.8499999999999999
Info: NONBONDED TABLE R-SQUARED SPACING: 0.0625
Info: NONBONDED TABLE SIZE: 705 POINTS
TCL: Setting parameter alchLambda2 to 0.7999999999999998
Info: NONBONDED TABLE R-SQUARED SPACING: 0.0625
Info: NONBONDED TABLE SIZE: 705 POINTS
TCL: Running for 1500000 steps
ETITLE: TS BOND ANGLE DIHED IMPRP ELECT VDW BOUNDARY MISC KINETIC TOTAL TEMP POTENTIAL TOTALAVG TEMPAVG PRESSURE GPRESSURE VOLUME PRESSAVG GPRESSAVG
ENERGY: 0 6.7856 18.7381 25.9940 0.0000 -10774.9553 1461.9087 0.0000 0.0000 1706.5092 -7555.0198 289.4841 -9261.5289 -7555.0198 289.4841 198.8241 262.2506 30585.6126 198.8241 262.2506
ENERGY: 300000 5.8674 15.5385 25.2278 0.0000 -10648.2484 1398.3448 0.0000 0.0000 1768.5289 -7434.7409 300.0048 -9203.2698 -7494.4125 295.0231 -317.5130 -168.6278 30524.4507 -170.3300 -88.7811
ENERGY: 600000 6.3857 18.5447 22.1052 0.0000 -10676.7604 1311.3044 0.0000 0.0000 1783.4513 -7534.9691 302.5362 -9318.4204 -7493.5342 297.2901 -859.0513 -782.0323 30450.3272 -281.5945 -198.3361
ENERGY: 900000 6.8396 20.5974 23.5190 0.0000 -10703.7781 1426.5309 0.0000 0.0000 1835.5592 -7390.7320 311.3755 -9226.2912 -7467.6333 300.1390 129.1905 241.4509 30297.2062 -66.5671 19.6784
ENERGY: 1200000 3.1472 15.4747 23.6978 0.0000 -10817.2989 1464.8641 0.0000 0.0000 1808.3155 -7501.7997 306.7540 -9310.1152 -7476.9566 300.1286 236.4294 356.9133 30481.0901 -62.0205 18.0484
ENERGY: 1500000 6.5158 20.1622 23.9132 0.0000 -10652.6975 1363.1895 0.0000 0.0000 1741.1984 -7497.7184 295.3686 -9238.9168 -7472.9886 300.0562 -539.0958 -425.6674 30613.8099 -38.9770 39.4075
TCL: Running FEP window   5: Lambda1 0.7999999999999998 Lambda2 0.7499999999999998 [dLambda -0.050000000000000044]
TCL: Setting parameter firsttimestep to 0
TCL: Setting parameter alchLambda to 0.7999999999999998
Info: NONBONDED TABLE R-SQUARED SPACING: 0.0625
Info: NONBONDED TABLE SIZE: 705 POINTS
TCL: Setting parameter alchLambda2 to 0.7499999999999998
Info: NONBONDED TABLE R-SQUARED SPACING: 0.0625
Info: NONBONDED TABLE SIZE: 705 POINTS
TCL: Running for 1500000 steps
ETITLE: TS BOND ANGLE DIHED IMPRP ELECT VDW BOUNDARY MISC KINETIC TOTAL TEMP POTENTIAL TOTALAVG TEMPAVG PRESSURE GPRESSURE VOLUME PRESSAVG GPRESSAVG
ENERGY: 0 6.5158 20.1622 23.9132 0.0000 -10650.1491 1362.0639 0.0000 0.0000 1740.3126 -7497.1814 295.2183 -9237.4940 -7497.1814 295.2183 -537.8907 -454.1807 30613.8099 -537.8907 -454.1807
ENERGY: 300000 5.0808 10.8668 24.0739 0.0000 -10740.2941 1464.0615 0.0000 0.0000 1764.9503 -7471.2609 299.3977 -9236.2112 -7517.1161 300.8203 303.5209 440.8034 30597.3950 278.0898 323.0885
ENERGY: 600000 4.7463 14.1232 23.2591 0.0000 -10688.2521 1359.5921 0.0000 0.0000 1696.2220 -7590.3094 287.7390 -9286.5314 -7540.1933 299.0479 -500.3157 -439.6869 30183.3635 175.9167 218.1907
ENERGY: 900000 6.6193 18.1578 25.1289 0.0000 -10669.8422 1413.1620 0.0000 0.0000 1804.2180 -7402.5561 306.0589 -9206.7741 -7516.8616 301.4166 -255.5588 -240.0191 30874.2960 -13.7463 26.1804
ENERGY: 1200000 4.6437 13.8020 24.9736 0.0000 -10640.7394 1445.1012 0.0000 0.0000 1748.1798 -7404.0390 296.5529 -9152.2188 -7497.7844 300.6183 510.1167 601.1344 30594.5962 45.0932 95.5027
ENERGY: 1500000 7.2190 21.6780 22.0925 0.0000 -10853.6770 1484.9274 0.0000 0.0000 1773.9324 -7543.8276 300.9214 -9317.7600 -7494.0104 300.3697 381.7315 456.0019 30110.3104 26.7576 77.9379
TCL: Running FEP window   6: Lambda1 0.7499999999999998 Lambda2 0.6999999999999997 [dLambda -0.050000000000000044]
TCL: Setting parameter firsttimestep to 0
TCL: Setting parameter alchLambda to 0.7499999999999998
Info: NONBONDED TABLE R-SQUARED SPACING: 0.0625
Info: NONBONDED TABLE SIZE: 705 POINTS
TCL: Setting parameter alchLambda2 to 0.6999999999999997
Info: NONBONDED TABLE R-SQUARED SPACING: 0.0625
Info: NONBONDED TABLE SIZE: 705 POINTS
TCL: Running for 1500000 steps
ETITLE: TS BOND ANGLE DIHED IMPRP ELECT VDW BOUNDARY MISC KINETIC TOTAL TEMP POTENTIAL TOTALAVG TEMPAVG PRESSURE GPRESSURE VOLUME PRESSAVG GPRESSAVG
ENERGY: 0 7.2190 21.6780 22.0925 0.0000 -10851.8240 1484.8016 0.0000 0.0000 1773.0494 -7542.9834 300.7716 -9316.0328 -7542.9834 300.7716 348.8181 435.8493 30110.3104 348.8181 435.8493
ENERGY: 300000 7.3386 18.4725 22.4813 0.0000 -10644.3079 1390.8717 0.0000 0.0000 1821.1014 -7384.0424 308.9229 -9205.1438 -7502.8340 301.2139 -133.3143 -49.7227 30290.5448 212.1444 295.2767
ENERGY: 600000 3.8572 20.2067 22.3956 0.0000 -10853.3150 1482.9431 0.0000 0.0000 1781.0363 -7542.8762 302.1265 -9323.9124 -7516.3162 301.0936 750.5797 763.9969 30022.1011 465.8417 542.4910
ENERGY: 900000 3.6221 15.8833 24.7849 0.0000 -10675.9159 1416.9140 0.0000 0.0000 1800.3505 -7414.3610 305.4029 -9214.7116 -7497.2383 301.1606 107.5155 168.3994 30452.1981 464.6408 547.7709
ENERGY: 1200000 4.6866 19.9018 22.2992 0.0000 -10815.9132 1471.8334 0.0000 0.0000 1825.2486 -7471.9436 309.6265 -9297.1922 -7498.6609 301.8477 373.0902 438.4729 30145.8983 374.6339 448.8410
ENERGY: 1500000 7.0939 19.3308 25.9176 0.0000 -10720.5085 1467.9660 0.0000 0.0000 1781.2350 -7418.9651 302.1602 -9200.2001 -7493.0572 301.5297 613.1264 679.9270 30101.8432 331.1722 404.0233
TCL: Running FEP window   7: Lambda1 0.6999999999999997 Lambda2 0.6499999999999997 [dLambda -0.050000000000000044]
TCL: Setting parameter firsttimestep to 0
TCL: Setting parameter alchLambda to 0.6999999999999997
Info: NONBONDED TABLE R-SQUARED SPACING: 0.0625
Info: NONBONDED TABLE SIZE: 705 POINTS
TCL: Setting parameter alchLambda2 to 0.6499999999999997
Info: NONBONDED TABLE R-SQUARED SPACING: 0.0625
Info: NONBONDED TABLE SIZE: 705 POINTS
TCL: Running for 1500000 steps
ETITLE: TS BOND ANGLE DIHED IMPRP ELECT VDW BOUNDARY MISC KINETIC TOTAL TEMP POTENTIAL TOTALAVG TEMPAVG PRESSURE GPRESSURE VOLUME PRESSAVG GPRESSAVG
ENERGY: 0 7.0939 19.3308 25.9176 0.0000 -10718.4247 1468.2665 0.0000 0.0000 1780.3724 -7417.4436 302.0139 -9197.8159 -7417.4436 302.0139 598.9869 667.4229 30101.8432 598.9869 667.4229
ENERGY: 300000 4.6174 17.9968 27.0700 0.0000 -10857.9037 1507.4851 0.0000 0.0000 1827.0020 -7473.7324 309.9239 -9300.7344 -7430.7750 305.4451 644.3281 673.6018 30321.6804 376.4813 435.6046
ENERGY: 600000 5.4119 20.4259 26.0837 0.0000 -10775.5893 1467.8350 0.0000 0.0000 1773.5404 -7482.2925 300.8549 -9255.8329 -7444.4513 304.9300 126.1205 159.1162 30992.3274 323.2795 370.4925
ENERGY: 900000 2.6743 17.9490 24.7378 0.0000 -10762.4578 1480.0226 0.0000 0.0000 1740.7584 -7496.3156 295.2939 -9237.0740 -7447.4231 302.8283 158.7917 265.5977 30908.0741 160.3179 218.7115
ENERGY: 1200000 6.3238 26.2550 27.8330 0.0000 -10647.5261 1378.6698 0.0000 0.0000 1760.9686 -7447.4759 298.7223 -9208.4445 -7448.6695 302.2964 -347.7993 -264.0651 30504.2277 85.5411 141.4490
ENERGY: 1500000 4.6198 15.4733 26.2493 0.0000 -10597.1856 1369.0626 0.0000 0.0000 1770.6169 -7411.1638 300.3590 -9181.7807 -7442.7603 302.0971 -314.4235 -286.3677 30769.2216 -23.6539 28.1677
TCL: Running FEP window   8: Lambda1 0.6499999999999997 Lambda2 0.5999999999999996 [dLambda -0.050000000000000044]
TCL: Setting parameter firsttimestep to 0
TCL: Setting parameter alchLambda to 0.6499999999999997
Info: NONBONDED TABLE R-SQUARED SPACING: 0.0625
Info: NONBONDED TABLE SIZE: 705 POINTS
TCL: Setting parameter alchLambda2 to 0.5999999999999996
Info: NONBONDED TABLE R-SQUARED SPACING: 0.0625
Info: NONBONDED TABLE SIZE: 705 POINTS
TCL: Running for 1500000 steps
ETITLE: TS BOND ANGLE DIHED IMPRP ELECT VDW BOUNDARY MISC KINETIC TOTAL TEMP POTENTIAL TOTALAVG TEMPAVG PRESSURE GPRESSURE VOLUME PRESSAVG GPRESSAVG
ENERGY: 0 4.6198 15.4733 26.2493 0.0000 -10595.4272 1369.1756 0.0000 0.0000 1769.7101 -7410.1992 300.2052 -9179.9092 -7410.1992 300.2052 -382.7795 -303.8606 30769.2216 -382.7795 -303.8606
ENERGY: 300000 4.3189 17.4406 25.6099 0.0000 -10671.6193 1428.9025 0.0000 0.0000 1812.7730 -7382.5744 307.5102 -9195.3474 -7447.8494 302.3157 247.5380 361.6096 30230.2212 -64.9977 3.9473
ENERGY: 600000 2.2375 14.5275 22.1666 0.0000 -10745.2023 1437.6484 0.0000 0.0000 1764.8758 -7503.7465 299.3851 -9268.6223 -7470.8772 300.9275 277.9385 382.1700 30318.9898 -121.1971 -56.8715
ENERGY: 900000 5.8729 19.9880 25.5506 0.0000 -10851.4250 1494.9313 0.0000 0.0000 1783.3722 -7521.7100 302.5227 -9305.0822 -7498.9471 300.6573 564.4969 607.9699 30169.9659 -64.4299 -3.0546
ENERGY: 1200000 5.9201 15.1045 27.1497 0.0000 -10693.8978 1387.5220 0.0000 0.0000 1759.1333 -7499.0682 298.4110 -9258.2015 -7486.8858 300.3729 -424.6285 -354.2188 30368.1049 -129.2964 -69.0199
ENERGY: 1500000 6.4159 17.0193 26.3120 0.0000 -10548.2458 1349.7917 0.0000 0.0000 1756.0444 -7392.6625 297.8870 -9148.7069 -7483.2805 299.4180 -184.8697 -153.5957 30604.5103 -145.0655 -88.5103
TCL: Running FEP window   9: Lambda1 0.5999999999999996 Lambda2 0.5499999999999996 [dLambda -0.050000000000000044]
TCL: Setting parameter firsttimestep to 0
TCL: Setting parameter alchLambda to 0.5999999999999996
Info: NONBONDED TABLE R-SQUARED SPACING: 0.0625
Info: NONBONDED TABLE SIZE: 705 POINTS
TCL: Setting parameter alchLambda2 to 0.5499999999999996
Info: NONBONDED TABLE R-SQUARED SPACING: 0.0625
Info: NONBONDED TABLE SIZE: 705 POINTS
TCL: Running for 1500000 steps
ETITLE: TS BOND ANGLE DIHED IMPRP ELECT VDW BOUNDARY MISC KINETIC TOTAL TEMP POTENTIAL TOTALAVG TEMPAVG PRESSURE GPRESSURE VOLUME PRESSAVG GPRESSAVG
ENERGY: 0 6.4159 17.0193 26.3120 0.0000 -10546.6750 1349.3796 0.0000 0.0000 1755.0901 -7392.4581 297.7251 -9147.5482 -7392.4581 297.7251 -268.4753 -175.1941 30604.5103 -268.4753 -175.1941
ENERGY: 300000 6.0836 24.6525 22.9597 0.0000 -10749.2648 1440.2628 0.0000 0.0000 1731.0465 -7524.2598 293.6465 -9255.3063 -7423.3649 300.4167 26.6842 45.3153 30084.2377 -264.6576 -193.2354
ENERGY: 600000 4.4993 17.1365 24.5114 0.0000 -10675.6047 1360.8727 0.0000 0.0000 1737.2054 -7531.3794 294.6912 -9268.5848 -7464.3930 298.5558 -618.3458 -566.6328 30478.3126 -91.5754 -15.8037
ENERGY: 900000 5.9193 16.2676 25.0237 0.0000 -10753.2206 1478.1862 0.0000 0.0000 1839.1251 -7388.6987 311.9804 -9227.8238 -7442.4752 300.4295 732.3438 787.6483 30207.2291 31.5524 108.7623
ENERGY: 1200000 6.7412 13.6544 27.4417 0.0000 -10689.2716 1365.9335 0.0000 0.0000 1727.6871 -7547.8137 293.0766 -9275.5008 -7437.4812 300.3610 -723.9135 -612.6572 30662.5001 -39.3130 32.0822
ENERGY: 1500000 7.6825 12.5086 26.8720 0.0000 -10592.7081 1384.0344 0.0000 0.0000 1750.0821 -7411.5284 296.8756 -9161.6105 -7432.9193 300.6039 -234.3638 -140.7589 30906.9096 -44.4209 28.4652
TCL: Running FEP window  10: Lambda1 0.5499999999999996 Lambda2 0.4999999999999996 [dLambda -0.04999999999999999]
TCL: Setting parameter firsttimestep to 0
TCL: Setting parameter alchLambda to 0.5499999999999996
Info: NONBONDED TABLE R-SQUARED SPACING: 0.0625
Info: NONBONDED TABLE SIZE: 705 POINTS
TCL: Setting parameter alchLambda2 to 0.4999999999999996
Info: NONBONDED TABLE R-SQUARED SPACING: 0.0625
Info: NONBONDED TABLE SIZE: 705 POINTS
TCL: Running for 1500000 steps
ETITLE: TS BOND ANGLE DIHED IMPRP ELECT VDW BOUNDARY MISC KINETIC TOTAL TEMP POTENTIAL TOTALAVG TEMPAVG PRESSURE GPRESSURE VOLUME PRESSAVG GPRESSAVG
ENERGY: 0 7.6825 12.5086 26.8720 0.0000 -10591.8562 1385.0968 0.0000 0.0000 1749.1834 -7410.5128 296.7231 -9159.6962 -7410.5128 296.7231 -217.1649 -142.0965 30906.9096 -217.1649 -142.0965
ENERGY: 300000 4.3846 21.5545 21.7454 0.0000 -10714.2354 1425.8756 0.0000 0.0000 1780.6644 -7460.0109 302.0634 -9240.6753 -7463.4097 301.5023 127.2539 140.0412 30236.8713 236.3507 287.6156
ENERGY: 600000 6.8598 21.3281 22.9442 0.0000 -10699.9848 1374.5547 0.0000 0.0000 1758.6542 -7515.6438 298.3297 -9274.2980 -7468.5079 300.2953 -477.4755 -443.3265 30337.4552 102.4208 160.8021
ENERGY: 900000 3.5994 17.4031 24.7957 0.0000 -10673.2321 1399.3789 0.0000 0.0000 1684.7596 -7543.2954 285.7946 -9228.0551 -7464.7765 297.7426 60.7453 40.5572 30169.8975 -55.1611 -2.2622
ENERGY: 1200000 6.4516 23.1390 21.6129 0.0000 -10709.1423 1420.6987 0.0000 0.0000 1791.8910 -7445.3490 303.9678 -9237.2401 -7457.0286 298.6116 -1.0697 76.9634 30419.7132 -88.3964 -26.4563
ENERGY: 1500000 6.3946 15.2699 24.2913 0.0000 -10700.1618 1474.7651 0.0000 0.0000 1725.6691 -7453.7717 292.7343 -9179.4408 -7455.5555 298.7002 520.0716 502.1494 30400.5492 -96.7500 -40.8807
TCL: Running FEP window  11: Lambda1 0.4999999999999996 Lambda2 0.4499999999999996 [dLambda -0.04999999999999999]
TCL: Setting parameter firsttimestep to 0
TCL: Setting parameter alchLambda to 0.4999999999999996
Info: NONBONDED TABLE R-SQUARED SPACING: 0.0625
Info: NONBONDED TABLE SIZE: 705 POINTS
TCL: Setting parameter alchLambda2 to 0.4499999999999996
Info: NONBONDED TABLE R-SQUARED SPACING: 0.0625
Info: NONBONDED TABLE SIZE: 705 POINTS
TCL: Running for 1500000 steps
ETITLE: TS BOND ANGLE DIHED IMPRP ELECT VDW BOUNDARY MISC KINETIC TOTAL TEMP POTENTIAL TOTALAVG TEMPAVG PRESSURE GPRESSURE VOLUME PRESSAVG GPRESSAVG
ENERGY: 0 6.3946 15.2699 24.2913 0.0000 -10699.4763 1475.2772 0.0000 0.0000 1724.7777 -7453.4655 292.5831 -9178.2432 -7453.4655 292.5831 410.6334 489.4271 30400.5492 410.6334 489.4271
ENERGY: 300000 4.9240 14.0533 22.4829 0.0000 -10664.8874 1469.5360 0.0000 0.0000 1732.5066 -7421.3846 293.8941 -9153.8912 -7443.1802 298.0455 28.1567 101.9931 31067.3507 193.3086 259.5420
ENERGY: 600000 4.3935 17.4845 23.6016 0.0000 -10675.4387 1450.1375 0.0000 0.0000 1769.6937 -7410.1279 300.2024 -9179.8216 -7442.6057 298.0494 164.5686 264.7592 30613.1444 98.2245 156.3589
ENERGY: 900000 4.4910 14.8564 19.9529 0.0000 -10693.3352 1446.7910 0.0000 0.0000 1784.8548 -7422.3891 302.7742 -9207.2439 -7436.9623 299.1395 132.7411 210.2813 30584.1420 -5.6408 48.1459
ENERGY: 1200000 5.0293 19.6359 24.0901 0.0000 -10713.0761 1357.3074 0.0000 0.0000 1809.9230 -7497.0905 307.0267 -9307.0135 -7438.6586 299.4785 -565.6120 -477.6402 30075.2030 -58.6224 -2.7132
ENERGY: 1500000 5.7145 14.1817 26.9588 0.0000 -10570.7346 1310.3949 0.0000 0.0000 1817.8344 -7395.6503 308.3687 -9213.4847 -7438.9407 299.5981 -789.0083 -725.3122 30778.1581 -165.6916 -106.6404
TCL: Running FEP window  12: Lambda1 0.4499999999999996 Lambda2 0.39999999999999963 [dLambda -0.04999999999999999]
TCL: Setting parameter firsttimestep to 0
TCL: Setting parameter alchLambda to 0.4499999999999996
Info: NONBONDED TABLE R-SQUARED SPACING: 0.0625
Info: NONBONDED TABLE SIZE: 705 POINTS
TCL: Setting parameter alchLambda2 to 0.39999999999999963
Info: NONBONDED TABLE R-SQUARED SPACING: 0.0625
Info: NONBONDED TABLE SIZE: 705 POINTS
TCL: Running for 1500000 steps
ETITLE: TS BOND ANGLE DIHED IMPRP ELECT VDW BOUNDARY MISC KINETIC TOTAL TEMP POTENTIAL TOTALAVG TEMPAVG PRESSURE GPRESSURE VOLUME PRESSAVG GPRESSAVG
ENERGY: 0 5.7145 14.1817 26.9588 0.0000 -10570.7351 1311.2569 0.0000 0.0000 1816.9432 -7395.6800 308.2176 -9212.6232 -7395.6800 308.2176 -792.1412 -729.1106 30778.1581 -792.1412 -729.1106
ENERGY: 300000 3.8960 16.6233 23.8460 0.0000 -10637.2437 1407.9923 0.0000 0.0000 1809.8506 -7375.0354 307.0144 -9184.8861 -7453.7998 304.4275 109.5239 160.1844 30509.5546 -203.7522 -147.0586
ENERGY: 600000 4.5102 18.9701 22.1214 0.0000 -10699.3295 1424.0643 0.0000 0.0000 1778.3139 -7451.3496 301.6647 -9229.6636 -7427.8429 304.5110 -237.8892 -185.3824 30690.1478 -252.6095 -192.3917
ENERGY: 900000 3.2105 11.3625 26.5557 0.0000 -10640.8506 1372.9204 0.0000 0.0000 1741.4498 -7485.3516 295.4112 -9226.8014 -7438.7057 302.1628 -455.0664 -401.5272 30300.9194 -331.9800 -268.3760
ENERGY: 1200000 9.3743 18.0395 22.5945 0.0000 -10686.0554 1336.4245 0.0000 0.0000 1811.3767 -7488.2460 307.2733 -9299.6227 -7436.0863 302.6169 -984.3951 -868.1122 30259.4048 -381.7971 -308.1653
ENERGY: 1500000 4.7053 17.6899 25.7459 0.0000 -10729.3961 1450.3981 0.0000 0.0000 1822.5994 -7408.2573 309.1771 -9230.8568 -7435.0195 302.6419 264.3200 299.0363 30429.2741 -309.6994 -238.0857
TCL: Running FEP window  13: Lambda1 0.39999999999999963 Lambda2 0.34999999999999964 [dLambda -0.04999999999999999]
TCL: Setting parameter firsttimestep to 0
TCL: Setting parameter alchLambda to 0.39999999999999963
Info: NONBONDED TABLE R-SQUARED SPACING: 0.0625
Info: NONBONDED TABLE SIZE: 705 POINTS
TCL: Setting parameter alchLambda2 to 0.34999999999999964
Info: NONBONDED TABLE R-SQUARED SPACING: 0.0625
Info: NONBONDED TABLE SIZE: 705 POINTS
TCL: Running for 1500000 steps
ETITLE: TS BOND ANGLE DIHED IMPRP ELECT VDW BOUNDARY MISC KINETIC TOTAL TEMP POTENTIAL TOTALAVG TEMPAVG PRESSURE GPRESSURE VOLUME PRESSAVG GPRESSAVG
ENERGY: 0 4.7053 17.6899 25.7459 0.0000 -10729.3954 1451.6637 0.0000 0.0000 1821.7475 -7407.8430 309.0325 -9229.5905 -7407.8430 309.0325 219.6867 298.5042 30429.2741 219.6867 298.5042
ENERGY: 300000 4.8152 17.5726 23.2598 0.0000 -10652.3670 1403.4711 0.0000 0.0000 1737.2310 -7466.0173 294.6956 -9203.2483 -7443.4199 300.3858 -143.9241 -58.6144 30206.4629 33.5675 100.5140
ENERGY: 600000 6.4064 17.3876 22.1708 0.0000 -10675.0762 1428.2811 0.0000 0.0000 1798.3865 -7402.4438 305.0697 -9200.8303 -7426.8654 300.6868 155.6793 238.2385 30470.4715 -6.7416 63.9650
ENERGY: 900000 4.6488 17.7117 25.6741 0.0000 -10772.4679 1412.9137 0.0000 0.0000 1745.9627 -7565.5569 296.1768 -9311.5196 -7443.8643 300.8704 -464.6180 -454.4579 30604.1060 -90.6187 -29.9522
ENERGY: 1200000 3.9003 31.7451 27.2877 0.0000 -10749.5730 1425.9932 0.0000 0.0000 1751.7911 -7508.8556 297.1655 -9260.6467 -7444.6121 300.8249 -176.0492 -73.5431 30544.4490 -199.6963 -142.2186
ENERGY: 1500000 7.9417 19.8127 26.1671 0.0000 -10705.8255 1386.5875 0.0000 0.0000 1764.9888 -7500.3277 299.4043 -9265.3165 -7445.4540 300.9697 -681.2421 -635.5783 30720.2943 -254.4302 -197.4095
TCL: Running FEP window  14: Lambda1 0.34999999999999964 Lambda2 0.29999999999999966 [dLambda -0.04999999999999999]
TCL: Setting parameter firsttimestep to 0
TCL: Setting parameter alchLambda to 0.34999999999999964
Info: NONBONDED TABLE R-SQUARED SPACING: 0.0625
Info: NONBONDED TABLE SIZE: 705 POINTS
TCL: Setting parameter alchLambda2 to 0.29999999999999966
Info: NONBONDED TABLE R-SQUARED SPACING: 0.0625
Info: NONBONDED TABLE SIZE: 705 POINTS
TCL: Running for 1500000 steps
ETITLE: TS BOND ANGLE DIHED IMPRP ELECT VDW BOUNDARY MISC KINETIC TOTAL TEMP POTENTIAL TOTALAVG TEMPAVG PRESSURE GPRESSURE VOLUME PRESSAVG GPRESSAVG
ENERGY: 0 7.9417 19.8127 26.1671 0.0000 -10705.8256 1387.6821 0.0000 0.0000 1764.1084 -7500.1135 299.2549 -9264.2219 -7500.1135 299.2549 -723.8860 -638.1407 30720.2943 -723.8860 -638.1407
ENERGY: 300000 4.7973 18.5246 25.0999 0.0000 -10890.4367 1557.8505 0.0000 0.0000 1796.7401 -7487.4244 304.7904 -9284.1645 -7455.2502 301.1803 1088.4548 1138.1850 30061.2324 -83.4354 -8.8472
ENERGY: 600000 4.1018 22.4645 27.9535 0.0000 -10691.1175 1409.1603 0.0000 0.0000 1793.1713 -7434.2661 304.1850 -9227.4374 -7472.1514 299.9528 -179.9673 -51.3623 30205.7018 -215.5210 -130.7669
ENERGY: 900000 4.6661 17.1745 22.8847 0.0000 -10681.6633 1444.9863 0.0000 0.0000 1811.4045 -7380.5472 307.2780 -9191.9518 -7447.8457 301.4057 326.0258 387.0098 30276.9941 -98.9399 -28.8738
ENERGY: 1200000 6.7797 16.7197 24.6023 0.0000 -10729.5792 1383.3235 0.0000 0.0000 1826.5252 -7471.6288 309.8430 -9298.1540 -7452.2509 301.7403 -537.8253 -454.5442 30233.6509 -157.3248 -87.5948
ENERGY: 1500000 3.6099 14.5877 24.2765 0.0000 -10676.2107 1418.6668 0.0000 0.0000 1722.4459 -7492.6238 292.1875 -9215.0697 -7457.4341 300.8864 112.1906 164.8432 30277.8487 -153.6744 -84.7171
TCL: Running FEP window  15: Lambda1 0.29999999999999966 Lambda2 0.24999999999999967 [dLambda -0.04999999999999999]
TCL: Setting parameter firsttimestep to 0
TCL: Setting parameter alchLambda to 0.29999999999999966
Info: NONBONDED TABLE R-SQUARED SPACING: 0.0625
Info: NONBONDED TABLE SIZE: 705 POINTS
TCL: Setting parameter alchLambda2 to 0.24999999999999967
Info: NONBONDED TABLE R-SQUARED SPACING: 0.0625
Info: NONBONDED TABLE SIZE: 705 POINTS
TCL: Running for 1500000 steps
ETITLE: TS BOND ANGLE DIHED IMPRP ELECT VDW BOUNDARY MISC KINETIC TOTAL TEMP POTENTIAL TOTALAVG TEMPAVG PRESSURE GPRESSURE VOLUME PRESSAVG GPRESSAVG
ENERGY: 0 3.6099 14.5877 24.2765 0.0000 -10676.2097 1419.5233 0.0000 0.0000 1721.5591 -7492.6531 292.0371 -9214.2122 -7492.6531 292.0371 89.7395 164.0704 30277.8487 89.7395 164.0704
ENERGY: 300000 8.5244 12.8388 24.8628 0.0000 -10755.9241 1442.4414 0.0000 0.0000 1736.6439 -7530.6129 294.5960 -9267.2568 -7495.8071 291.8189 -116.3513 -85.5721 30313.6495 -3.5324 71.6595
ENERGY: 600000 4.0292 21.4462 23.6016 0.0000 -10938.9030 1563.8768 0.0000 0.0000 1769.8920 -7556.0573 300.2360 -9325.9493 -7484.9916 294.5975 966.6913 1018.9577 30169.5445 30.6097 101.4933
ENERGY: 900000 3.5844 12.0831 26.6164 0.0000 -10796.3482 1482.8917 0.0000 0.0000 1836.3832 -7434.7894 311.5153 -9271.1726 -7465.2185 299.2739 269.2627 347.7253 30375.4709 115.0443 186.7744
ENERGY: 1200000 2.5597 19.1585 23.3754 0.0000 -10797.4733 1537.7729 0.0000 0.0000 1763.8366 -7450.7701 299.2088 -9214.6067 -7452.5053 299.7301 694.6916 704.6409 30554.1135 7.6524 77.4144
ENERGY: 1500000 6.7433 13.0361 27.5946 0.0000 -10717.8718 1436.3962 0.0000 0.0000 1731.9518 -7502.1498 293.8000 -9234.1016 -7453.0112 300.0883 -68.1154 36.5522 29968.5763 -29.1711 40.3657
TCL: Running FEP window  16: Lambda1 0.24999999999999967 Lambda2 0.19999999999999968 [dLambda -0.04999999999999999]
TCL: Setting parameter firsttimestep to 0
TCL: Setting parameter alchLambda to 0.24999999999999967
Info: NONBONDED TABLE R-SQUARED SPACING: 0.0625
Info: NONBONDED TABLE SIZE: 705 POINTS
TCL: Setting parameter alchLambda2 to 0.19999999999999968
Info: NONBONDED TABLE R-SQUARED SPACING: 0.0625
Info: NONBONDED TABLE SIZE: 705 POINTS
TCL: Running for 1500000 steps
ETITLE: TS BOND ANGLE DIHED IMPRP ELECT VDW BOUNDARY MISC KINETIC TOTAL TEMP POTENTIAL TOTALAVG TEMPAVG PRESSURE GPRESSURE VOLUME PRESSAVG GPRESSAVG
ENERGY: 0 6.7433 13.0361 27.5946 0.0000 -10717.8720 1436.9552 0.0000 0.0000 1731.0581 -7502.4847 293.6484 -9233.5428 -7502.4847 293.6484 -55.4661 31.8404 29968.5763 -55.4661 31.8404
ENERGY: 300000 8.8344 18.8007 23.9747 0.0000 -10698.0151 1407.0560 0.0000 0.0000 1779.3634 -7459.9859 301.8427 -9239.3493 -7451.7793 297.3718 -368.5791 -261.5956 30099.5296 -216.1583 -139.8822
ENERGY: 600000 9.5562 13.8488 24.2399 0.0000 -10782.2230 1511.1340 0.0000 0.0000 1777.9288 -7445.5153 301.5993 -9223.4441 -7436.9333 299.4015 499.4256 560.6262 30433.9284 -141.3073 -61.9027
ENERGY: 900000 8.5441 15.7938 22.6182 0.0000 -10784.5312 1491.1489 0.0000 0.0000 1793.7025 -7452.7237 304.2751 -9246.4262 -7444.8433 299.5104 251.2100 294.5494 30653.6454 -78.4142 -8.0573
ENERGY: 1200000 4.7137 18.1449 24.6606 0.0000 -10627.7455 1358.8467 0.0000 0.0000 1766.6877 -7454.6920 299.6925 -9221.3797 -7456.4293 299.0976 -567.8305 -532.6278 30391.8245 -106.3534 -27.6195
ENERGY: 1500000 1.5099 16.2432 23.9153 0.0000 -10674.1555 1382.1186 0.0000 0.0000 1769.7952 -7480.5732 300.2196 -9250.3684 -7463.5245 298.2405 -406.0373 -336.4528 30371.5568 -168.2302 -90.1712
TCL: Running FEP window  17: Lambda1 0.19999999999999968 Lambda2 0.1499999999999997 [dLambda -0.04999999999999999]
TCL: Setting parameter firsttimestep to 0
TCL: Setting parameter alchLambda to 0.19999999999999968
Info: NONBONDED TABLE R-SQUARED SPACING: 0.0625
Info: NONBONDED TABLE SIZE: 705 POINTS
TCL: Setting parameter alchLambda2 to 0.1499999999999997
Info: NONBONDED TABLE R-SQUARED SPACING: 0.0625
Info: NONBONDED TABLE SIZE: 705 POINTS
TCL: Running for 1500000 steps
ETITLE: TS BOND ANGLE DIHED IMPRP ELECT VDW BOUNDARY MISC KINETIC TOTAL TEMP POTENTIAL TOTALAVG TEMPAVG PRESSURE GPRESSURE VOLUME PRESSAVG GPRESSAVG
ENERGY: 0 1.5099 16.2432 23.9153 0.0000 -10674.1551 1381.7410 0.0000 0.0000 1768.9225 -7481.8230 300.0716 -9250.7456 -7481.8230 300.0716 -430.3680 -342.3590 30371.5568 -430.3680 -342.3590
ENERGY: 300000 5.9890 14.9987 23.5997 0.0000 -10697.8250 1404.0585 0.0000 0.0000 1781.2551 -7467.9240 302.1636 -9249.1791 -7464.2689 300.6785 64.1883 117.7110 29918.1821 27.6619 98.7802
ENERGY: 600000 6.5640 18.4941 25.7782 0.0000 -10620.0970 1402.2974 0.0000 0.0000 1819.2202 -7347.7431 308.6038 -9166.9633 -7433.9939 300.8078 -275.4896 -252.6774 30789.5034 -156.3381 -79.2876
ENERGY: 900000 5.7614 21.9041 20.7135 0.0000 -10792.8108 1438.9536 0.0000 0.0000 1788.1427 -7517.3354 303.3320 -9305.4781 -7443.2445 301.1497 -470.5496 -403.3600 30278.9519 -164.7571 -90.6292
ENERGY: 1200000 7.4940 16.6982 21.6057 0.0000 -10585.1629 1345.9762 0.0000 0.0000 1827.1847 -7366.2041 309.9549 -9193.3888 -7434.7841 302.5396 -796.9096 -770.3486 30948.3851 -79.9430 -10.7560
ENERGY: 1500000 5.3754 21.5664 26.4614 0.0000 -10632.5943 1396.3603 0.0000 0.0000 1804.3553 -7378.4755 306.0822 -9182.8308 -7429.2270 302.0186 -134.8620 -127.9860 30211.5503 39.6268 107.9570
TCL: Running FEP window  18: Lambda1 0.1499999999999997 Lambda2 0.09999999999999969 [dLambda -0.05 ]
TCL: Setting parameter firsttimestep to 0
TCL: Setting parameter alchLambda to 0.1499999999999997
Info: NONBONDED TABLE R-SQUARED SPACING: 0.0625
Info: NONBONDED TABLE SIZE: 705 POINTS
TCL: Setting parameter alchLambda2 to 0.09999999999999969
Info: NONBONDED TABLE R-SQUARED SPACING: 0.0625
Info: NONBONDED TABLE SIZE: 705 POINTS
TCL: Running for 1500000 steps
ETITLE: TS BOND ANGLE DIHED IMPRP ELECT VDW BOUNDARY MISC KINETIC TOTAL TEMP POTENTIAL TOTALAVG TEMPAVG PRESSURE GPRESSURE VOLUME PRESSAVG GPRESSAVG
ENERGY: 0 5.3754 21.5664 26.4614 0.0000 -10632.5938 1396.1457 0.0000 0.0000 1803.4484 -7379.5966 305.9284 -9183.0450 -7379.5966 305.9284 -219.2929 -134.2053 30211.5503 -219.2929 -134.2053
ENERGY: 300000 3.6261 17.5508 27.4804 0.0000 -10690.0551 1370.0627 0.0000 0.0000 1761.8549 -7509.4803 298.8727 -9271.3352 -7487.1239 299.8006 -440.9254 -378.8690 29825.4093 -380.4188 -307.2779
ENERGY: 600000 5.3193 17.8150 23.0086 0.0000 -10720.4235 1527.3853 0.0000 0.0000 1774.8081 -7372.0871 301.0700 -9146.8953 -7475.7508 300.3357 966.7193 1090.6806 29982.5715 -79.5249 14.7559
ENERGY: 900000 6.5115 14.2816 20.7863 0.0000 -10674.3229 1373.7063 0.0000 0.0000 1721.4079 -7537.6292 292.0114 -9259.0372 -7483.5465 298.4211 -370.4523 -302.0062 29825.2826 -132.0424 -44.4377
ENERGY: 1200000 7.3949 23.1230 25.1321 0.0000 -10611.1349 1418.4036 0.0000 0.0000 1727.2025 -7409.8788 292.9944 -9137.0814 -7468.5877 298.4889 -172.7405 -92.6248 30205.4798 -75.1440 9.0622
ENERGY: 1500000 6.8449 18.1714 25.0575 0.0000 -10613.5188 1337.8614 0.0000 0.0000 1803.1149 -7422.4686 305.8718 -9225.5835 -7470.0724 299.3775 -678.9305 -687.8950 30234.1978 -77.6694 -3.6016
TCL: Running FEP window  19: Lambda1 0.09999999999999969 Lambda2 0.049999999999999684 [dLambda -0.05 ]
TCL: Setting parameter firsttimestep to 0
TCL: Setting parameter alchLambda to 0.09999999999999969
Info: NONBONDED TABLE R-SQUARED SPACING: 0.0625
Info: NONBONDED TABLE SIZE: 705 POINTS
TCL: Setting parameter alchLambda2 to 0.049999999999999684
Info: NONBONDED TABLE R-SQUARED SPACING: 0.0625
Info: NONBONDED TABLE SIZE: 705 POINTS
TCL: Running for 1500000 steps
ETITLE: TS BOND ANGLE DIHED IMPRP ELECT VDW BOUNDARY MISC KINETIC TOTAL TEMP POTENTIAL TOTALAVG TEMPAVG PRESSURE GPRESSURE VOLUME PRESSAVG GPRESSAVG
ENERGY: 0 6.8449 18.1714 25.0575 0.0000 -10613.5184 1337.9626 0.0000 0.0000 1802.2541 -7423.2279 305.7258 -9225.4820 -7423.2279 305.7258 -769.7874 -693.6892 30234.1978 -769.7874 -693.6892
ENERGY: 300000 3.5445 19.7902 22.0482 0.0000 -10680.5796 1458.7645 0.0000 0.0000 1813.9882 -7362.4440 307.7163 -9176.4322 -7362.4276 304.5674 376.9453 483.1202 30209.9069 -38.6761 40.2462
ENERGY: 600000 6.2074 17.1867 26.8711 0.0000 -10797.7469 1442.6731 0.0000 0.0000 1805.9413 -7498.8674 306.3513 -9304.8087 -7422.0927 304.7812 362.8586 416.6015 29515.0260 -81.2754 -10.5935
ENERGY: 900000 7.6198 19.7801 25.8153 0.0000 -10684.6077 1425.7365 0.0000 0.0000 1776.3926 -7429.2634 301.3387 -9205.6559 -7405.4883 305.0412 330.6505 290.3900 29488.8524 38.2739 91.4902
ENERGY: 1200000 1.5443 16.7850 23.6141 0.0000 -10779.2203 1481.7365 0.0000 0.0000 1721.1677 -7534.3728 291.9707 -9255.5404 -7417.3309 303.8812 192.8148 316.0840 30289.6202 38.4132 97.2814
ENERGY: 1500000 9.0881 17.5184 22.7043 0.0000 -10663.2135 1464.9360 0.0000 0.0000 1697.2963 -7451.6704 287.9212 -9148.9667 -7424.8686 303.2617 406.1366 431.0178 30105.4007 40.6001 97.9680
TCL: Running FEP window  20: Lambda1 0.049999999999999684 Lambda2 0.0    [dLambda -0.049999999999999684]
TCL: Setting parameter firsttimestep to 0
TCL: Setting parameter alchLambda to 0.049999999999999684
Info: NONBONDED TABLE R-SQUARED SPACING: 0.0625
Info: NONBONDED TABLE SIZE: 705 POINTS
TCL: Setting parameter alchLambda2 to 0.0
Info: NONBONDED TABLE R-SQUARED SPACING: 0.0625
Info: NONBONDED TABLE SIZE: 705 POINTS
TCL: Running for 1500000 steps
ETITLE: TS BOND ANGLE DIHED IMPRP ELECT VDW BOUNDARY MISC KINETIC TOTAL TEMP POTENTIAL TOTALAVG TEMPAVG PRESSURE GPRESSURE VOLUME PRESSAVG GPRESSAVG
ENERGY: 0 9.0881 17.5184 22.7043 0.0000 -10663.2149 1464.3716 0.0000 0.0000 1696.4489 -7453.0837 287.7775 -9149.5325 -7453.0837 287.7775 349.2599 423.2605 30105.4007 349.2599 423.2605
ENERGY: 300000 9.1252 15.1022 24.3975 0.0000 -10712.8350 1420.1850 0.0000 0.0000 1760.0087 -7484.0163 298.5595 -9244.0250 -7424.9924 298.9022 -428.7486 -434.4519 30274.6232 -97.0021 -51.3193
ENERGY: 600000 8.7805 11.7760 25.5685 0.0000 -10586.6163 1344.2022 0.0000 0.0000 1802.6219 -7393.6672 305.7882 -9196.2891 -7442.3304 299.7371 -760.0578 -760.2542 30339.2078 -192.9089 -152.9988
ENERGY: 900000 4.6503 22.2564 21.9293 0.0000 -10737.9212 1413.1427 0.0000 0.0000 1771.9924 -7503.9500 300.5923 -9275.9425 -7455.0196 299.1912 -101.5516 -47.1436 29862.3926 -173.0187 -127.0408
ENERGY: 1200000 5.0355 13.8058 23.3941 0.0000 -10680.1295 1388.2853 0.0000 0.0000 1724.3235 -7525.2853 292.5060 -9249.6088 -7459.5247 299.1934 -491.3495 -442.5971 30172.2160 -114.7950 -67.1366
ENERGY: 1500000 8.0769 22.5459 24.8734 0.0000 -10695.1595 1459.9166 0.0000 0.0000 1697.1616 -7482.5850 287.8984 -9179.7466 -7457.1674 299.0891 693.2484 705.6316 29887.7642 -73.0363 -26.6429
TCL: Exiting due to exit command.
