Info: SIMULATION PARAMETERS:
Info: TIMESTEP               2
Info: NUMBER OF STEPS        0
Info: STEPS PER CYCLE        10
Info: PERIODIC CELL BASIS 1  29.2729 0 0
Info: PERIODIC CELL BASIS 2  0 31.8418 0
Info: PERIODIC CELL BASIS 3  0 0 32.1545
Info: PERIODIC CELL CENTER   0 0 0
Info: WRAPPING WATERS AROUND PERIODIC BOUNDARIES ON OUTPUT.
Info: WRAPPING ALL CLUSTERS AROUND PERIODIC BOUNDARIES ON OUTPUT.
Info: FIRST LDB TIMESTEP     50
Info: LAST LDB TIMESTEP     -1
Info: HOM BACKGROUND SCALING 1
Info: PME BACKGROUND SCALING 1
Info: MIN ATOMS PER PATCH    40
Info: EMPTY PATCH LOAD       40 ATOMS
Info: VELOCITY FILE          mobley_3210206_equil.vel
Info: CENTER OF MASS MOVING INITIALLY? NO
Info: DIELECTRIC             1
Info: EXCLUDE                SCALED ONE-FOUR
Info: 1-4 ELECTROSTATICS SCALED BY 0.833333
Info: MODIFIED 1-4 VDW PARAMETERS WILL BE USED
Info: DCD FILENAME           mobley_3210206_prod.dcd
Info: DCD FREQUENCY          100000
Info: DCD FIRST STEP         100000
Info: DCD FILE WILL CONTAIN UNIT CELL DATA
Info: XST FILENAME           mobley_3210206_prod.xst
Info: XST FREQUENCY          100000
Info: NO VELOCITY DCD OUTPUT
Info: NO FORCE DCD OUTPUT
Info: OUTPUT FILENAME        mobley_3210206_prod
Info: BINARY OUTPUT FILES WILL BE USED
Info: RESTART FILENAME       mobley_3210206_prod.restart
Info: RESTART FREQUENCY      100000
Info: BINARY RESTART FILES WILL BE USED
Info: CUTOFF                 9
Info: PAIRLIST DISTANCE      11
Info: PAIRLIST SHRINK RATE   0.01
Info: PAIRLIST GROW RATE     0.01
Info: PAIRLIST TRIGGER       0.3
Info: PAIRLISTS PER CYCLE    2
Info: PAIRLISTS ENABLED
Info: MARGIN                 2
Info: HYDROGEN GROUP CUTOFF  2.5
Info: PATCH DIMENSION        15.5
Info: ENERGY OUTPUT STEPS    100000
Info: ENERGY EVALUATION STEPS    100000
Info: OUTPUT ENERGY PRECISION 4
Info: CROSSTERM ENERGY INCLUDED IN DIHEDRAL
Info: TIMING OUTPUT STEPS    1000000
Info: PRESSURE OUTPUT STEPS  100000
Info: ALCHEMICAL FEP ON
Info: FEP CURRENT LAMBDA VALUE     0
Info: FEP COMPARISON LAMBDA VALUE  0.05
Info: FEP INTRA-ALCHEMICAL NON-BONDED INTERACTIONS WILL BE RETAINED
Info: FEP INTRA-ALCHEMICAL BONDED INTERACTIONS WILL BE RETAINED
Info: FEP VDW SHIFTING COEFFICIENT 5
Info: FEP ELEC. ACTIVE FOR ANNIHILATED PARTICLES BETWEEN LAMBDA = 0 AND LAMBDA = 0.5
Info: FEP ELEC. ACTIVE FOR EXNIHILATED PARTICLES BETWEEN LAMBDA = 0.5 AND LAMBDA = 1
Info: FEP VDW ACTIVE FOR ANNIHILATED PARTICLES BETWEEN LAMBDA = 0 AND LAMBDA = 1
Info: FEP VDW ACTIVE FOR EXNIHILATED PARTICLES BETWEEN LAMBDA = 0 AND LAMBDA = 1
Info: FEP BOND ACTIVE FOR ANNIHILATED PARTICLES BETWEEN LAMBDA = 1 AND LAMBDA = 1
Info: FEP BOND ACTIVE FOR EXNIHILATED PARTICLES BETWEEN LAMBDA = 0 AND LAMBDA = 0
Info: LANGEVIN DYNAMICS ACTIVE
Info: LANGEVIN TEMPERATURE   300
Info: LANGEVIN USING BBK INTEGRATOR
Info: LANGEVIN DAMPING COEFFICIENT IS 1 INVERSE PS
Info: LANGEVIN DYNAMICS APPLIED TO HYDROGENS
Info: LANGEVIN PISTON PRESSURE CONTROL ACTIVE
Info:        TARGET PRESSURE IS 1.01325 BAR
Info:     OSCILLATION PERIOD IS 50 FS
Info:             DECAY TIME IS 25 FS
Info:     PISTON TEMPERATURE IS 300 K
Info:       PRESSURE CONTROL IS GROUP-BASED
Info:    INITIAL STRAIN RATE IS 0.000316104 0.000316104 0.000316104
Info:       CELL FLUCTUATION IS ISOTROPIC
Info: PARTICLE MESH EWALD (PME) ACTIVE
Info: PME TOLERANCE               1e-06
Info: PME EWALD COEFFICIENT       0.348832
Info: PME INTERPOLATION ORDER     4
Info: PME GRID DIMENSIONS         32 32 36
Info: PME MAXIMUM GRID SPACING    1
Info: PME CALCULATION WILL BE PERFORMED ON GPU
Info: FULL ELECTROSTATIC EVALUATION FREQUENCY      2
Info: USING VERLET I (r-RESPA) MTS SCHEME.
Info: C1 SPLITTING OF LONG RANGE ELECTROSTATICS
Info: PLACING ATOMS IN PATCHES BY HYDROGEN GROUPS
Info: RIGID BONDS TO HYDROGEN : ALL
Info:         ERROR TOLERANCE : 1e-08
Info:          MAX ITERATIONS : 100
Info: RIGID WATER USING SETTLE ALGORITHM
Info: RANDOM NUMBER SEED     1744002126
Info: USE HYDROGEN BONDS?    NO
Info: Using AMBER format force field!
Info: AMBER PARM FILE        mobley_3210206.prmtop
Info: COORDINATE PDB         mobley_3210206.pdb
Info: Exclusions will be read from PARM file!
Info: SCNB (VDW SCALING)     2
Info: USING ARITHMETIC MEAN TO COMBINE L-J SIGMA PARAMETERS
Info: BINARY COORDINATES     mobley_3210206_equil.coor
Info: SUMMARY OF PARAMETERS:
Info: 8 BONDS
Info: 10 ANGLES
Info:   10 HARMONIC
Info:   0 COSINE-BASED
Info: 8 DIHEDRAL
Info: 0 IMPROPER
Info: 0 CROSSTERM
Info: 0 VDW
Info: 36 VDW_PAIRS
Info: 0 NBTHOLE_PAIRS
Info: To read alchdata from file: mobley_3210206.pdb
Info: To read alchflag data from column: 5
Info: STRUCTURE SUMMARY:
Info: 2906 ATOMS
Info: 2905 BONDS
Info: 26 ANGLES
Info: 35 DIHEDRALS
Info: 0 IMPROPERS
Info: 0 CROSSTERMS
Info: 2959 EXCLUSIONS
Info: 2895 RIGID BONDS
Info: ALCH: 0 ATOMS TO DISAPPEAR IN FINAL STATE
Info: ALCH: 17 ATOMS TO APPEAR IN FINAL STATE
Info: 5823 DEGREES OF FREEDOM
Info: 974 HYDROGEN GROUPS
Info: 4 ATOMS IN LARGEST HYDROGEN GROUP
Info: 974 MIGRATION GROUPS
Info: 4 ATOMS IN LARGEST MIGRATION GROUP
Info: TOTAL MASS = 17515.5 amu
Info: TOTAL CHARGE = 5.21541e-08 e
Info: MASS DENSITY = 0.970456 g/cm^3
Info: ATOM DENSITY = 0.0969593 atoms/A^3
Info: ADDED 0 IMPLICIT EXCLUSIONS
Info: NONBONDED TABLE R-SQUARED SPACING: 0.0625
Info: NONBONDED TABLE SIZE: 705 POINTS
Info: REMOVING COM VELOCITY 0.0672553 0.0402421 -0.0364985
Info: Use 3D box decompostion in PME FFT.
Info: Updated CUDA force table with 4096 elements.
Info: Updated CUDA LJ table with 8 x 8 elements.
Info: Found 18 unique exclusion lists needing 44 bytes
TCL: Running for 1500000 steps
ETITLE: TS BOND ANGLE DIHED IMPRP ELECT VDW BOUNDARY MISC KINETIC TOTAL TEMP POTENTIAL TOTALAVG TEMPAVG PRESSURE GPRESSURE VOLUME PRESSAVG GPRESSAVG
ENERGY: 0 7.7395 11.8506 4.4953 0.0000 -10510.3150 1378.2848 0.0000 0.0000 1777.1433 -7330.8014 307.1610 -9107.9447 -7330.8014 307.1610 -484.5465 -385.0240 29971.3400 -484.5465 -385.0240
ENERGY: 300000 3.1270 9.3835 5.0266 0.0000 -10503.1731 1427.7700 0.0000 0.0000 1770.8388 -7287.0271 306.0713 -9057.8659 -7334.4803 301.3721 -57.3922 58.6973 29674.0607 -279.6444 -214.1738
ENERGY: 600000 2.5421 4.1567 4.4240 0.0000 -10353.9548 1253.2710 0.0000 0.0000 1762.7548 -7326.8061 304.6741 -9089.5609 -7346.2285 301.7476 -1281.0455 -1219.0983 29816.1414 -385.4374 -318.1055
ENERGY: 900000 2.7680 8.7229 8.3290 0.0000 -10502.8614 1356.9844 0.0000 0.0000 1735.7417 -7390.3155 300.0051 -9126.0572 -7354.2166 301.2776 -630.4796 -584.5645 29526.5216 -271.2006 -198.7907
ENERGY: 1200000 2.6390 7.5401 4.0419 0.0000 -10518.5700 1396.8869 0.0000 0.0000 1731.9078 -7375.5544 299.3425 -9107.4622 -7359.7490 300.7970 -189.6691 -59.5048 29286.1382 -273.3499 -194.2546
ENERGY: 1500000 3.0087 5.5721 7.4504 0.0000 -10471.1424 1407.3959 0.0000 0.0000 1792.9103 -7254.8051 309.8861 -9047.7154 -7357.7428 300.9627 -49.8109 8.9955 30107.1530 -246.0143 -174.4435
TCL: Running FEP window   2: Lambda1 0.05   Lambda2 0.1    [dLambda 0.05  ]
TCL: Setting parameter firsttimestep to 0
TCL: Setting parameter alchLambda to 0.05
Info: NONBONDED TABLE R-SQUARED SPACING: 0.0625
Info: NONBONDED TABLE SIZE: 705 POINTS
TCL: Setting parameter alchLambda2 to 0.1
Info: NONBONDED TABLE R-SQUARED SPACING: 0.0625
Info: NONBONDED TABLE SIZE: 705 POINTS
TCL: Running for 1500000 steps
ETITLE: TS BOND ANGLE DIHED IMPRP ELECT VDW BOUNDARY MISC KINETIC TOTAL TEMP POTENTIAL TOTALAVG TEMPAVG PRESSURE GPRESSURE VOLUME PRESSAVG GPRESSAVG
ENERGY: 0 3.0087 5.5721 7.4504 0.0000 -10471.1423 1410.0987 0.0000 0.0000 1792.0496 -7252.9628 309.7374 -9045.0124 -7252.9628 309.7374 -66.8886 17.9097 30107.1530 -66.8886 17.9097
ENERGY: 300000 8.7931 6.2184 6.4504 0.0000 -10443.8191 1344.5419 0.0000 0.0000 1718.2896 -7359.5256 296.9887 -9077.8153 -7324.8848 301.5036 -1056.9816 -974.2973 30516.0892 -529.4453 -443.7684
ENERGY: 600000 1.9594 7.0845 5.0425 0.0000 -10505.8335 1422.7558 0.0000 0.0000 1714.1811 -7354.8102 296.2786 -9068.9913 -7355.6190 300.4350 -204.9109 -120.8880 30139.3113 -375.4920 -288.6935
ENERGY: 900000 3.6267 7.7194 5.4950 0.0000 -10618.8875 1462.2339 0.0000 0.0000 1710.5701 -7429.2424 295.6545 -9139.8125 -7363.5954 300.1209 389.8868 435.0571 29227.4993 -210.1439 -141.0062
ENERGY: 1200000 4.6184 7.3651 3.9224 0.0000 -10615.6083 1483.8745 0.0000 0.0000 1751.2345 -7364.5934 302.6829 -9115.8279 -7361.8351 300.3149 271.8682 334.4625 30051.4904 -173.2739 -102.8090
ENERGY: 1500000 3.2543 10.3086 7.2433 0.0000 -10448.0077 1344.4773 0.0000 0.0000 1742.8547 -7339.8695 301.2345 -9082.7242 -7356.8506 300.5667 -531.4566 -475.3954 29695.3940 -241.1287 -176.5680
TCL: Running FEP window   3: Lambda1 0.1    Lambda2 0.15000000000000002 [dLambda 0.05000000000000002]
TCL: Setting parameter firsttimestep to 0
TCL: Setting parameter alchLambda to 0.1
Info: NONBONDED TABLE R-SQUARED SPACING: 0.0625
Info: NONBONDED TABLE SIZE: 705 POINTS
TCL: Setting parameter alchLambda2 to 0.15000000000000002
Info: NONBONDED TABLE R-SQUARED SPACING: 0.0625
Info: NONBONDED TABLE SIZE: 705 POINTS
TCL: Running for 1500000 steps
ETITLE: TS BOND ANGLE DIHED IMPRP ELECT VDW BOUNDARY MISC KINETIC TOTAL TEMP POTENTIAL TOTALAVG TEMPAVG PRESSURE GPRESSURE VOLUME PRESSAVG GPRESSAVG
ENERGY: 0 3.2543 10.3086 7.2433 0.0000 -10448.0051 1345.2576 0.0000 0.0000 1742.0330 -7339.9084 301.0925 -9081.9414 -7339.9084 301.0925 -554.4088 -473.9305 29695.3940 -554.4088 -473.9305
ENERGY: 300000 2.0292 6.6175 5.7892 0.0000 -10480.3562 1404.0074 0.0000 0.0000 1784.1923 -7277.7206 308.3793 -9061.9129 -7354.8099 301.9562 -149.2572 -38.2601 30197.8265 -327.6213 -247.9111
ENERGY: 600000 3.0626 8.5916 3.2211 0.0000 -10463.7180 1344.9259 0.0000 0.0000 1755.0220 -7348.8948 303.3375 -9103.9168 -7361.5677 301.2609 -813.2482 -721.6935 30071.3640 -282.8659 -222.8754
ENERGY: 900000 1.8183 10.0369 8.7908 0.0000 -10518.2392 1360.6622 0.0000 0.0000 1668.5208 -7468.4101 288.3867 -9136.9309 -7369.1589 300.2855 -514.6923 -439.5751 29710.3037 -273.4398 -208.2811
ENERGY: 1200000 3.1882 7.0627 3.3589 0.0000 -10572.8126 1430.9253 0.0000 0.0000 1781.7499 -7346.5276 307.9572 -9128.2775 -7378.1057 300.4402 -145.4515 -115.7881 29921.8797 -229.2107 -163.0715
ENERGY: 1500000 2.7741 4.0207 6.0717 0.0000 -10623.6921 1444.1825 0.0000 0.0000 1813.0465 -7353.5966 313.3665 -9166.6431 -7358.1730 301.6363 -128.9911 -68.0902 29908.4017 -240.8258 -171.6826
TCL: Running FEP window   4: Lambda1 0.15000000000000002 Lambda2 0.2    [dLambda 0.04999999999999999]
TCL: Setting parameter firsttimestep to 0
TCL: Setting parameter alchLambda to 0.15000000000000002
Info: NONBONDED TABLE R-SQUARED SPACING: 0.0625
Info: NONBONDED TABLE SIZE: 705 POINTS
TCL: Setting parameter alchLambda2 to 0.2
Info: NONBONDED TABLE R-SQUARED SPACING: 0.0625
Info: NONBONDED TABLE SIZE: 705 POINTS
TCL: Running for 1500000 steps
ETITLE: TS BOND ANGLE DIHED IMPRP ELECT VDW BOUNDARY MISC KINETIC TOTAL TEMP POTENTIAL TOTALAVG TEMPAVG PRESSURE GPRESSURE VOLUME PRESSAVG GPRESSAVG
ENERGY: 0 2.7741 4.0207 6.0717 0.0000 -10623.6925 1444.7661 0.0000 0.0000 1812.1791 -7353.8807 313.2166 -9166.0599 -7353.8807 313.2166 -154.3671 -62.8804 29908.4017 -154.3671 -62.8804
ENERGY: 300000 2.6236 12.3605 6.4844 0.0000 -10435.7575 1346.7598 0.0000 0.0000 1762.4035 -7305.1256 304.6134 -9067.5291 -7337.0647 305.3718 -483.6110 -445.5867 30133.8364 -224.7439 -155.9612
ENERGY: 600000 3.8535 8.2198 6.1541 0.0000 -10512.6098 1407.3707 0.0000 0.0000 1771.8280 -7315.1838 306.2423 -9087.0118 -7339.1718 303.0373 -294.3336 -214.7721 30006.1356 -283.1356 -203.0253
ENERGY: 900000 2.9839 3.8805 3.7569 0.0000 -10434.0199 1395.0957 0.0000 0.0000 1735.8722 -7292.4308 300.0277 -9028.3030 -7331.8393 303.0855 -21.6513 -15.3976 29691.2052 -179.2743 -106.1450
ENERGY: 1200000 2.1419 10.5298 5.2227 0.0000 -10596.4125 1395.2240 0.0000 0.0000 1743.6012 -7439.6930 301.3636 -9183.2941 -7334.8357 302.5112 -202.3485 -249.2739 29521.0326 -187.8834 -120.9897
ENERGY: 1500000 4.5749 6.3365 6.8632 0.0000 -10493.1563 1370.5804 0.0000 0.0000 1751.6000 -7353.2013 302.7461 -9104.8013 -7333.7608 302.3455 -668.8567 -700.0345 30055.2713 -150.0489 -89.3702
TCL: Running FEP window   5: Lambda1 0.2    Lambda2 0.25   [dLambda 0.04999999999999999]
TCL: Setting parameter firsttimestep to 0
TCL: Setting parameter alchLambda to 0.2
Info: NONBONDED TABLE R-SQUARED SPACING: 0.0625
Info: NONBONDED TABLE SIZE: 705 POINTS
TCL: Setting parameter alchLambda2 to 0.25
Info: NONBONDED TABLE R-SQUARED SPACING: 0.0625
Info: NONBONDED TABLE SIZE: 705 POINTS
TCL: Running for 1500000 steps
ETITLE: TS BOND ANGLE DIHED IMPRP ELECT VDW BOUNDARY MISC KINETIC TOTAL TEMP POTENTIAL TOTALAVG TEMPAVG PRESSURE GPRESSURE VOLUME PRESSAVG GPRESSAVG
ENERGY: 0 4.5749 6.3365 6.8632 0.0000 -10493.1561 1370.5895 0.0000 0.0000 1750.7340 -7354.0579 302.5964 -9104.7919 -7354.0579 302.5964 -757.9342 -694.3720 30055.2713 -757.9342 -694.3720
ENERGY: 300000 3.7752 3.8103 7.4656 0.0000 -10596.1399 1451.4677 0.0000 0.0000 1726.1474 -7403.4737 298.3469 -9129.6211 -7384.3975 298.2095 -61.7112 53.4796 29944.7314 -531.3205 -444.4736
ENERGY: 600000 1.5558 9.1896 6.0468 0.0000 -10578.2530 1425.2754 0.0000 0.0000 1751.3945 -7384.7910 302.7106 -9136.1855 -7390.9545 298.8607 -388.3446 -298.3131 30087.0471 -440.1793 -365.0245
ENERGY: 900000 3.7381 7.3495 3.9783 0.0000 -10514.0939 1346.0405 0.0000 0.0000 1720.0358 -7432.9516 297.2905 -9152.9874 -7372.5401 299.2042 -878.4984 -970.7592 30038.8287 -288.6027 -236.7861
ENERGY: 1200000 2.0748 8.9122 5.4792 0.0000 -10631.9596 1498.0119 0.0000 0.0000 1736.2832 -7381.1983 300.0987 -9117.4815 -7369.9158 300.4092 869.9814 859.4944 29281.4615 -149.0137 -101.3505
ENERGY: 1500000 4.8241 9.5027 4.1195 0.0000 -10516.9747 1421.2266 0.0000 0.0000 1730.7516 -7346.5502 299.1426 -9077.3018 -7371.8648 300.3825 26.5964 45.7661 29921.3229 -155.6173 -101.3754
TCL: Running FEP window   6: Lambda1 0.25   Lambda2 0.3    [dLambda 0.04999999999999999]
TCL: Setting parameter firsttimestep to 0
TCL: Setting parameter alchLambda to 0.25
Info: NONBONDED TABLE R-SQUARED SPACING: 0.0625
Info: NONBONDED TABLE SIZE: 705 POINTS
TCL: Setting parameter alchLambda2 to 0.3
Info: NONBONDED TABLE R-SQUARED SPACING: 0.0625
Info: NONBONDED TABLE SIZE: 705 POINTS
TCL: Running for 1500000 steps
ETITLE: TS BOND ANGLE DIHED IMPRP ELECT VDW BOUNDARY MISC KINETIC TOTAL TEMP POTENTIAL TOTALAVG TEMPAVG PRESSURE GPRESSURE VOLUME PRESSAVG GPRESSAVG
ENERGY: 0 4.8241 9.5027 4.1195 0.0000 -10516.9736 1423.4300 0.0000 0.0000 1729.8854 -7345.2120 298.9929 -9075.0973 -7345.2120 298.9929 -14.0621 63.5844 29921.3229 -14.0621 63.5844
ENERGY: 300000 2.5991 6.5450 5.2689 0.0000 -10464.3064 1381.6526 0.0000 0.0000 1668.0838 -7400.1571 288.3112 -9068.2409 -7387.0725 297.0621 -526.7339 -437.9057 30314.6668 -532.1170 -443.8784
ENERGY: 600000 3.8223 7.1602 4.1090 0.0000 -10375.3555 1309.9119 0.0000 0.0000 1685.8311 -7364.5210 291.3786 -9050.3521 -7366.2278 297.5108 -1047.8691 -997.5243 30023.6434 -537.3114 -459.8569
ENERGY: 900000 2.0066 9.8626 4.9748 0.0000 -10465.0356 1380.0330 0.0000 0.0000 1719.3674 -7348.7912 297.1750 -9068.1586 -7368.6379 297.4703 -94.9602 7.7461 29512.6907 -444.2812 -362.8587
ENERGY: 1200000 2.0346 7.3115 4.5684 0.0000 -10647.4352 1475.1040 0.0000 0.0000 1748.5802 -7409.8366 302.2241 -9158.4167 -7372.4502 298.4308 883.6405 912.7140 28795.3841 -241.0845 -170.1097
ENERGY: 1500000 2.3222 8.4903 5.5817 0.0000 -10566.7405 1434.4770 0.0000 0.0000 1802.7088 -7313.1604 311.5797 -9115.8692 -7368.1062 300.0276 73.8921 69.0119 30182.5949 -241.0416 -173.2439
TCL: Running FEP window   7: Lambda1 0.3    Lambda2 0.35   [dLambda 0.04999999999999999]
TCL: Setting parameter firsttimestep to 0
TCL: Setting parameter alchLambda to 0.3
Info: NONBONDED TABLE R-SQUARED SPACING: 0.0625
Info: NONBONDED TABLE SIZE: 705 POINTS
TCL: Setting parameter alchLambda2 to 0.35
Info: NONBONDED TABLE R-SQUARED SPACING: 0.0625
Info: NONBONDED TABLE SIZE: 705 POINTS
TCL: Running for 1500000 steps
ETITLE: TS BOND ANGLE DIHED IMPRP ELECT VDW BOUNDARY MISC KINETIC TOTAL TEMP POTENTIAL TOTALAVG TEMPAVG PRESSURE GPRESSURE VOLUME PRESSAVG GPRESSAVG
ENERGY: 0 2.3222 8.4903 5.5817 0.0000 -10566.7395 1434.6301 0.0000 0.0000 1801.9132 -7313.8019 311.4422 -9115.7151 -7313.8019 311.4422 -11.3065 75.4681 30182.5949 -11.3065 75.4681
ENERGY: 300000 1.4898 8.2248 3.8067 0.0000 -10552.1939 1445.5441 0.0000 0.0000 1771.2976 -7321.8309 306.1506 -9093.1285 -7366.2039 304.0096 350.3208 369.7093 29779.1356 539.4196 618.7322
ENERGY: 600000 4.6610 9.7357 9.8633 0.0000 -10580.5927 1456.3381 0.0000 0.0000 1729.3315 -7370.6631 298.8972 -9099.9946 -7359.5015 303.0448 353.2251 448.0890 29666.3730 417.1528 493.9607
ENERGY: 900000 5.4060 8.3353 4.0842 0.0000 -10615.0702 1489.0207 0.0000 0.0000 1718.2041 -7390.0199 296.9739 -9108.2239 -7370.8174 300.5172 505.1431 572.4230 29477.1275 252.1379 323.8515
ENERGY: 1200000 4.5687 7.2899 5.2426 0.0000 -10543.2594 1395.3194 0.0000 0.0000 1768.8267 -7362.0121 305.7235 -9130.8388 -7374.3407 300.1306 -314.8009 -275.0380 29826.5459 254.8934 321.4509
ENERGY: 1500000 4.0405 12.7954 5.6689 0.0000 -10559.5212 1425.7044 0.0000 0.0000 1695.5988 -7415.7132 293.0669 -9111.3120 -7377.8287 299.2367 -186.8629 -100.3709 29793.5950 210.6787 275.0737
TCL: Running FEP window   8: Lambda1 0.35   Lambda2 0.39999999999999997 [dLambda 0.04999999999999999]
TCL: Setting parameter firsttimestep to 0
TCL: Setting parameter alchLambda to 0.35
Info: NONBONDED TABLE R-SQUARED SPACING: 0.0625
Info: NONBONDED TABLE SIZE: 705 POINTS
TCL: Setting parameter alchLambda2 to 0.39999999999999997
Info: NONBONDED TABLE R-SQUARED SPACING: 0.0625
Info: NONBONDED TABLE SIZE: 705 POINTS
TCL: Running for 1500000 steps
ETITLE: TS BOND ANGLE DIHED IMPRP ELECT VDW BOUNDARY MISC KINETIC TOTAL TEMP POTENTIAL TOTALAVG TEMPAVG PRESSURE GPRESSURE VOLUME PRESSAVG GPRESSAVG
ENERGY: 0 4.0405 12.7954 5.6689 0.0000 -10559.5218 1425.9450 0.0000 0.0000 1694.7322 -7416.3398 292.9171 -9111.0720 -7416.3398 292.9171 -176.6940 -91.6118 29793.5950 -176.6940 -91.6118
ENERGY: 300000 3.1809 6.6129 5.5343 0.0000 -10534.1303 1404.8759 0.0000 0.0000 1812.5236 -7301.4028 313.2761 -9113.9263 -7365.0719 301.2024 108.9998 92.8606 29727.9938 293.1946 310.3234
ENERGY: 600000 3.0195 10.2172 4.9215 0.0000 -10436.9067 1359.9586 0.0000 0.0000 1749.7580 -7309.0320 302.4277 -9058.7899 -7342.8723 301.6517 -450.5986 -364.2408 30063.7033 162.2644 190.5437
ENERGY: 900000 1.4828 3.9867 5.9762 0.0000 -10644.8235 1449.8717 0.0000 0.0000 1718.8154 -7464.6907 297.0796 -9183.5061 -7353.8708 302.2875 267.3963 368.7325 29344.2051 71.2591 109.1913
ENERGY: 1200000 2.0834 9.9592 7.3967 0.0000 -10596.1406 1448.2335 0.0000 0.0000 1819.5871 -7308.8807 314.4970 -9128.4678 -7349.0826 302.7411 279.0868 349.4888 29705.4717 -63.3984 -24.0783
ENERGY: 1500000 2.3636 10.6816 2.5962 0.0000 -10454.8179 1382.6887 0.0000 0.0000 1738.2021 -7318.2857 300.4304 -9056.4878 -7341.6367 302.6298 -274.1935 -181.6914 30115.3002 -85.9595 -42.4110
TCL: Running FEP window   9: Lambda1 0.39999999999999997 Lambda2 0.44999999999999996 [dLambda 0.04999999999999999]
TCL: Setting parameter firsttimestep to 0
TCL: Setting parameter alchLambda to 0.39999999999999997
Info: NONBONDED TABLE R-SQUARED SPACING: 0.0625
Info: NONBONDED TABLE SIZE: 705 POINTS
TCL: Setting parameter alchLambda2 to 0.44999999999999996
Info: NONBONDED TABLE R-SQUARED SPACING: 0.0625
Info: NONBONDED TABLE SIZE: 705 POINTS
TCL: Running for 1500000 steps
ETITLE: TS BOND ANGLE DIHED IMPRP ELECT VDW BOUNDARY MISC KINETIC TOTAL TEMP POTENTIAL TOTALAVG TEMPAVG PRESSURE GPRESSURE VOLUME PRESSAVG GPRESSAVG
ENERGY: 0 2.3636 10.6816 2.5962 0.0000 -10454.8185 1382.6876 0.0000 0.0000 1737.3462 -7319.1432 300.2825 -9056.4894 -7319.1432 300.2825 -253.0075 -175.3063 30115.3002 -253.0075 -175.3063
ENERGY: 300000 4.1274 10.0812 6.3629 0.0000 -10559.2706 1402.3227 0.0000 0.0000 1710.8123 -7425.5641 295.6964 -9136.3764 -7349.4099 298.7491 -129.5927 -19.3255 29704.2446 -190.0463 -106.8052
ENERGY: 600000 3.4536 17.6821 4.2741 0.0000 -10401.4941 1307.7032 0.0000 0.0000 1753.0466 -7315.3346 302.9961 -9068.3812 -7339.1526 301.6138 -1040.8473 -1051.2521 30286.4499 -354.9720 -310.5311
ENERGY: 900000 2.7366 11.5479 3.5300 0.0000 -10484.0489 1405.1132 0.0000 0.0000 1733.6302 -7327.4910 299.6402 -9061.1212 -7332.6055 301.5694 93.9666 146.5087 29880.4687 -154.0292 -108.4404
ENERGY: 1200000 1.6835 13.0067 4.2520 0.0000 -10522.2647 1428.6260 0.0000 0.0000 1703.6282 -7371.0682 294.4547 -9074.6965 -7343.9461 301.2804 127.0506 259.2010 29794.3975 -43.4203 8.3962
ENERGY: 1500000 2.9635 10.3598 6.5532 0.0000 -10667.5742 1508.8149 0.0000 0.0000 1780.9896 -7357.8931 307.8258 -9138.8827 -7346.1558 301.0164 924.6744 921.8114 29416.6509 13.2217 65.7559
TCL: Running FEP window  10: Lambda1 0.44999999999999996 Lambda2 0.49999999999999994 [dLambda 0.04999999999999999]
TCL: Setting parameter firsttimestep to 0
TCL: Setting parameter alchLambda to 0.44999999999999996
Info: NONBONDED TABLE R-SQUARED SPACING: 0.0625
Info: NONBONDED TABLE SIZE: 705 POINTS
TCL: Setting parameter alchLambda2 to 0.49999999999999994
Info: NONBONDED TABLE R-SQUARED SPACING: 0.0625
Info: NONBONDED TABLE SIZE: 705 POINTS
TCL: Running for 1500000 steps
ETITLE: TS BOND ANGLE DIHED IMPRP ELECT VDW BOUNDARY MISC KINETIC TOTAL TEMP POTENTIAL TOTALAVG TEMPAVG PRESSURE GPRESSURE VOLUME PRESSAVG GPRESSAVG
ENERGY: 0 2.9635 10.3598 6.5532 0.0000 -10667.5746 1508.5296 0.0000 0.0000 1780.1125 -7359.0558 307.6742 -9139.1684 -7359.0558 307.6742 839.2060 926.9722 29416.6509 839.2060 926.9722
ENERGY: 300000 6.5178 7.2717 7.3441 0.0000 -10581.8439 1450.0155 0.0000 0.0000 1756.4899 -7354.2049 303.5913 -9110.6948 -7358.8908 301.6928 170.2702 244.9890 30062.6220 86.7809 163.0934
ENERGY: 600000 4.7654 9.5664 6.3491 0.0000 -10580.9421 1484.6576 0.0000 0.0000 1704.9237 -7370.6798 294.6786 -9075.6035 -7372.0342 299.8973 759.5378 819.4768 29463.4226 203.0966 265.5447
ENERGY: 900000 4.3239 7.0243 4.8522 0.0000 -10479.0401 1414.8454 0.0000 0.0000 1712.5307 -7335.4636 295.9933 -9047.9943 -7362.2683 299.2858 -92.8594 58.4295 30282.9568 -12.0075 51.1054
ENERGY: 1200000 6.4603 5.7549 6.6363 0.0000 -10504.7820 1374.6936 0.0000 0.0000 1782.8339 -7328.4030 308.1445 -9111.2369 -7356.3898 300.5968 -621.3758 -541.5609 30128.9195 -34.7463 23.3209
ENERGY: 1500000 2.5497 6.0720 7.9079 0.0000 -10465.7292 1346.5553 0.0000 0.0000 1749.2567 -7353.3876 302.3411 -9102.6443 -7355.9582 300.6985 -381.6277 -337.8277 29509.1477 -55.1497 4.2609
TCL: Running FEP window  11: Lambda1 0.49999999999999994 Lambda2 0.5499999999999999 [dLambda 0.04999999999999999]
TCL: Setting parameter firsttimestep to 0
TCL: Setting parameter alchLambda to 0.49999999999999994
Info: NONBONDED TABLE R-SQUARED SPACING: 0.0625
Info: NONBONDED TABLE SIZE: 705 POINTS
TCL: Setting parameter alchLambda2 to 0.5499999999999999
Info: NONBONDED TABLE R-SQUARED SPACING: 0.0625
Info: NONBONDED TABLE SIZE: 705 POINTS
TCL: Running for 1500000 steps
ETITLE: TS BOND ANGLE DIHED IMPRP ELECT VDW BOUNDARY MISC KINETIC TOTAL TEMP POTENTIAL TOTALAVG TEMPAVG PRESSURE GPRESSURE VOLUME PRESSAVG GPRESSAVG
ENERGY: 0 2.5497 6.0720 7.9079 0.0000 -10465.7290 1347.0937 0.0000 0.0000 1748.3775 -7353.7282 302.1891 -9102.1057 -7353.7282 302.1891 -410.5260 -324.1319 29509.1477 -410.5260 -324.1319
ENERGY: 300000 1.6910 8.5755 5.9034 0.0000 -10486.2976 1360.6216 0.0000 0.0000 1786.7446 -7322.7614 308.8205 -9109.5061 -7336.8258 303.1105 -558.5162 -494.3893 30480.4590 -436.0561 -367.7932
ENERGY: 600000 1.9213 6.0729 7.3306 0.0000 -10603.8076 1472.6902 0.0000 0.0000 1716.5542 -7399.2385 296.6888 -9115.7927 -7362.4828 301.6907 381.5388 447.6155 29868.0229 -337.9975 -267.2349
ENERGY: 900000 4.7576 8.6166 6.1486 0.0000 -10433.1034 1364.6785 0.0000 0.0000 1757.9354 -7290.9668 303.8411 -9048.9022 -7369.0241 301.6728 -195.5210 -159.8696 29855.1086 -310.0631 -247.2713
ENERGY: 1200000 1.4045 5.3513 4.5447 0.0000 -10491.4479 1404.3133 0.0000 0.0000 1760.4893 -7315.3450 304.2825 -9075.8342 -7360.3018 301.3125 -131.9530 -51.4956 30087.9861 -400.2760 -335.2185
ENERGY: 1500000 4.0433 9.9455 3.9735 0.0000 -10391.2364 1354.6832 0.0000 0.0000 1701.2878 -7317.3031 294.0501 -9018.5909 -7355.0398 300.6870 -347.6925 -313.3668 29968.2375 -435.2679 -374.7838
TCL: Running FEP window  12: Lambda1 0.5499999999999999 Lambda2 0.6    [dLambda 0.050000000000000044]
TCL: Setting parameter firsttimestep to 0
TCL: Setting parameter alchLambda to 0.5499999999999999
Info: NONBONDED TABLE R-SQUARED SPACING: 0.0625
Info: NONBONDED TABLE SIZE: 705 POINTS
TCL: Setting parameter alchLambda2 to 0.6
Info: NONBONDED TABLE R-SQUARED SPACING: 0.0625
Info: NONBONDED TABLE SIZE: 705 POINTS
TCL: Running for 1500000 steps
ETITLE: TS BOND ANGLE DIHED IMPRP ELECT VDW BOUNDARY MISC KINETIC TOTAL TEMP POTENTIAL TOTALAVG TEMPAVG PRESSURE GPRESSURE VOLUME PRESSAVG GPRESSAVG
ENERGY: 0 4.0433 9.9455 3.9735 0.0000 -10390.8050 1355.0379 0.0000 0.0000 1700.4696 -7317.3352 293.9087 -9017.8047 -7317.3352 293.9087 -376.7359 -295.2155 29968.2375 -376.7359 -295.2155
ENERGY: 300000 2.1282 14.0738 5.9181 0.0000 -10610.2036 1484.9807 0.0000 0.0000 1773.9933 -7329.1095 306.6165 -9103.1027 -7363.2841 298.8960 622.9044 699.0877 29623.0730 112.1576 159.7505
ENERGY: 600000 4.1461 5.9266 6.1851 0.0000 -10548.7719 1437.1797 0.0000 0.0000 1707.4604 -7387.8740 295.1170 -9095.3344 -7376.8501 297.5421 33.8127 112.3940 29869.7891 111.6933 171.1843
ENERGY: 900000 1.4413 5.5101 4.9586 0.0000 -10446.0969 1288.6105 0.0000 0.0000 1705.1032 -7440.4732 294.7096 -9145.5764 -7387.2631 297.8221 -1103.0260 -1057.3180 30253.4610 -49.1467 7.0016
ENERGY: 1200000 1.4673 10.0763 5.1698 0.0000 -10519.1866 1391.8778 0.0000 0.0000 1797.0194 -7313.5759 310.5964 -9110.5953 -7374.2130 300.4949 -41.9647 10.3311 29930.5286 -53.8135 0.0766
ENERGY: 1500000 2.7868 9.5910 4.2218 0.0000 -10568.0982 1378.9393 0.0000 0.0000 1734.5620 -7437.9974 299.8012 -9172.5594 -7374.8462 300.3266 -555.0898 -513.2388 29907.3232 -112.6518 -60.8016
TCL: Running FEP window  13: Lambda1 0.6    Lambda2 0.65   [dLambda 0.050000000000000044]
TCL: Setting parameter firsttimestep to 0
TCL: Setting parameter alchLambda to 0.6
Info: NONBONDED TABLE R-SQUARED SPACING: 0.0625
Info: NONBONDED TABLE SIZE: 705 POINTS
TCL: Setting parameter alchLambda2 to 0.65
Info: NONBONDED TABLE R-SQUARED SPACING: 0.0625
Info: NONBONDED TABLE SIZE: 705 POINTS
TCL: Running for 1500000 steps
ETITLE: TS BOND ANGLE DIHED IMPRP ELECT VDW BOUNDARY MISC KINETIC TOTAL TEMP POTENTIAL TOTALAVG TEMPAVG PRESSURE GPRESSURE VOLUME PRESSAVG GPRESSAVG
ENERGY: 0 2.7868 9.5910 4.2218 0.0000 -10567.6403 1378.6792 0.0000 0.0000 1733.6847 -7438.6769 299.6496 -9172.3615 -7438.6769 299.6496 -590.8276 -502.2981 29907.3232 -590.8276 -502.2981
ENERGY: 300000 2.3479 7.3167 5.3754 0.0000 -10594.9085 1455.9358 0.0000 0.0000 1802.5754 -7321.3573 311.5567 -9123.9327 -7370.7921 302.4874 339.9463 396.9041 30055.6348 -144.7233 -81.1723
ENERGY: 600000 3.5483 7.3087 5.4445 0.0000 -10400.3612 1381.3782 0.0000 0.0000 1743.2333 -7259.4482 301.3000 -9002.6815 -7354.3178 302.2462 -82.2887 -55.6973 30244.3271 -277.1708 -216.1749
ENERGY: 900000 1.7746 7.9511 5.7863 0.0000 -10505.2130 1399.4253 0.0000 0.0000 1684.2009 -7406.0747 291.0968 -9090.2757 -7363.4573 301.0859 -95.8003 -10.8422 29892.9079 -148.3879 -79.3715
ENERGY: 1200000 1.0522 11.4531 4.6974 0.0000 -10500.6418 1421.9347 0.0000 0.0000 1708.2062 -7353.2982 295.2459 -9061.5044 -7361.3987 300.6272 127.4572 221.6311 29899.0955 -117.8162 -41.0889
ENERGY: 1500000 3.5073 10.0257 7.4745 0.0000 -10483.5114 1353.8433 0.0000 0.0000 1773.1811 -7335.4794 306.4762 -9108.6605 -7358.2339 301.2837 -515.8531 -460.6038 30175.0071 -154.5170 -86.9131
TCL: Running FEP window  14: Lambda1 0.65   Lambda2 0.7000000000000001 [dLambda 0.050000000000000044]
TCL: Setting parameter firsttimestep to 0
TCL: Setting parameter alchLambda to 0.65
Info: NONBONDED TABLE R-SQUARED SPACING: 0.0625
Info: NONBONDED TABLE SIZE: 705 POINTS
TCL: Setting parameter alchLambda2 to 0.7000000000000001
Info: NONBONDED TABLE R-SQUARED SPACING: 0.0625
Info: NONBONDED TABLE SIZE: 705 POINTS
TCL: Running for 1500000 steps
ETITLE: TS BOND ANGLE DIHED IMPRP ELECT VDW BOUNDARY MISC KINETIC TOTAL TEMP POTENTIAL TOTALAVG TEMPAVG PRESSURE GPRESSURE VOLUME PRESSAVG GPRESSAVG
ENERGY: 0 3.5073 10.0257 7.4745 0.0000 -10483.7903 1353.6338 0.0000 0.0000 1772.3258 -7336.8232 306.3283 -9109.1490 -7336.8232 306.3283 -545.0266 -452.6068 30175.0071 -545.0266 -452.6068
ENERGY: 300000 4.3350 6.0525 4.9798 0.0000 -10397.9452 1338.7142 0.0000 0.0000 1715.0133 -7328.8504 296.4224 -9043.8638 -7340.9858 301.9618 -1005.8709 -926.9394 30790.7204 -380.7229 -320.4987
ENERGY: 600000 2.4214 11.0367 6.9424 0.0000 -10483.4534 1360.8541 0.0000 0.0000 1720.4714 -7381.7273 297.3658 -9102.1987 -7353.0931 301.3761 -333.3362 -224.0150 29562.8639 -257.1426 -181.0039
ENERGY: 900000 7.8532 5.4916 3.7121 0.0000 -10454.6667 1338.3678 0.0000 0.0000 1758.3057 -7340.9363 303.9051 -9099.2420 -7358.1554 301.1609 -1014.9181 -974.8295 30494.0508 -77.3013 -3.0754
ENERGY: 1200000 5.8918 5.5281 3.6064 0.0000 -10529.7062 1434.3889 0.0000 0.0000 1798.4236 -7281.8675 310.8391 -9080.2911 -7347.3856 301.7381 250.5219 326.6181 29903.9272 -85.2146 -13.3573
ENERGY: 1500000 1.8698 6.0919 5.6999 0.0000 -10335.4743 1327.7031 0.0000 0.0000 1751.5588 -7242.5507 302.7390 -8994.1095 -7342.6012 301.8196 -465.9030 -434.6167 30129.3058 -141.3469 -76.1714
TCL: Running FEP window  15: Lambda1 0.7000000000000001 Lambda2 0.7500000000000001 [dLambda 0.050000000000000044]
TCL: Setting parameter firsttimestep to 0
TCL: Setting parameter alchLambda to 0.7000000000000001
Info: NONBONDED TABLE R-SQUARED SPACING: 0.0625
Info: NONBONDED TABLE SIZE: 705 POINTS
TCL: Setting parameter alchLambda2 to 0.7500000000000001
Info: NONBONDED TABLE R-SQUARED SPACING: 0.0625
Info: NONBONDED TABLE SIZE: 705 POINTS
TCL: Running for 1500000 steps
ETITLE: TS BOND ANGLE DIHED IMPRP ELECT VDW BOUNDARY MISC KINETIC TOTAL TEMP POTENTIAL TOTALAVG TEMPAVG PRESSURE GPRESSURE VOLUME PRESSAVG GPRESSAVG
ENERGY: 0 1.8698 6.0919 5.6999 0.0000 -10335.3917 1327.8083 0.0000 0.0000 1750.6601 -7243.2617 302.5836 -8993.9217 -7243.2617 302.5836 -494.4010 -420.4762 30129.3058 -494.4010 -420.4762
ENERGY: 300000 4.0698 9.0933 5.8691 0.0000 -10537.3731 1399.6560 0.0000 0.0000 1756.2443 -7362.4405 303.5488 -9118.6849 -7340.0105 300.0131 -140.3365 -42.2009 30107.8804 -65.5372 22.8671
ENERGY: 600000 2.6151 6.3234 3.3898 0.0000 -10479.8771 1418.9280 0.0000 0.0000 1724.2191 -7324.4016 298.0136 -9048.6208 -7339.5046 299.9177 498.6004 549.8858 29551.4048 181.6581 250.9751
ENERGY: 900000 4.7044 7.5550 4.8904 0.0000 -10492.6877 1393.5763 0.0000 0.0000 1702.4840 -7379.4776 294.2569 -9081.9616 -7362.2304 298.1721 -175.4848 -80.5954 30022.2489 191.9552 273.3213
ENERGY: 1200000 4.8282 4.8242 7.3912 0.0000 -10499.9490 1425.3901 0.0000 0.0000 1734.1641 -7323.3510 299.7325 -9057.5152 -7356.7361 298.8113 272.2682 364.1580 29683.4149 68.5528 146.5833
ENERGY: 1500000 2.9551 8.5012 6.9102 0.0000 -10398.2182 1319.6154 0.0000 0.0000 1815.0880 -7245.1483 313.7193 -9060.2363 -7354.0318 299.8427 -752.2343 -704.5499 30213.4838 34.8094 108.2698
TCL: Running FEP window  16: Lambda1 0.7500000000000001 Lambda2 0.8000000000000002 [dLambda 0.050000000000000044]
TCL: Setting parameter firsttimestep to 0
TCL: Setting parameter alchLambda to 0.7500000000000001
Info: NONBONDED TABLE R-SQUARED SPACING: 0.0625
Info: NONBONDED TABLE SIZE: 705 POINTS
TCL: Setting parameter alchLambda2 to 0.8000000000000002
Info: NONBONDED TABLE R-SQUARED SPACING: 0.0625
Info: NONBONDED TABLE SIZE: 705 POINTS
TCL: Running for 1500000 steps
ETITLE: TS BOND ANGLE DIHED IMPRP ELECT VDW BOUNDARY MISC KINETIC TOTAL TEMP POTENTIAL TOTALAVG TEMPAVG PRESSURE GPRESSURE VOLUME PRESSAVG GPRESSAVG
ENERGY: 0 2.9551 8.5012 6.9102 0.0000 -10398.9049 1319.2442 0.0000 0.0000 1814.2111 -7247.0830 313.5678 -9061.2941 -7247.0830 313.5678 -776.2634 -695.2158 30213.4838 -776.2634 -695.2158
ENERGY: 300000 3.2740 4.3706 5.4940 0.0000 -10481.1786 1354.0055 0.0000 0.0000 1725.8379 -7388.1965 298.2934 -9114.0344 -7344.9386 303.7774 -734.0664 -686.0830 30302.8569 -285.8296 -236.3294
ENERGY: 600000 2.7410 12.3808 6.2099 0.0000 -10642.7115 1419.8839 0.0000 0.0000 1697.1948 -7504.3012 293.3427 -9201.4960 -7347.4688 304.3966 -123.2092 -68.2921 29424.9170 -126.9417 -67.0553
ENERGY: 900000 2.4393 9.5110 7.1377 0.0000 -10678.1166 1509.8613 0.0000 0.0000 1706.3877 -7442.7796 294.9316 -9149.1673 -7358.9185 302.7392 543.6221 560.0700 29970.3413 -147.3651 -107.0538
ENERGY: 1200000 2.5446 9.0988 3.7092 0.0000 -10420.2550 1314.3939 0.0000 0.0000 1697.6342 -7392.8743 293.4187 -9090.5085 -7362.5946 301.5228 -882.1700 -831.8899 30108.7461 -179.2437 -127.3735
ENERGY: 1500000 1.5826 6.7346 3.2623 0.0000 -10528.4179 1401.4015 0.0000 0.0000 1685.6272 -7429.8098 291.3434 -9115.4370 -7359.7528 301.6756 -268.9764 -192.0980 29995.3387 -177.5016 -118.7416
TCL: Running FEP window  17: Lambda1 0.8000000000000002 Lambda2 0.8500000000000002 [dLambda 0.050000000000000044]
TCL: Setting parameter firsttimestep to 0
TCL: Setting parameter alchLambda to 0.8000000000000002
Info: NONBONDED TABLE R-SQUARED SPACING: 0.0625
Info: NONBONDED TABLE SIZE: 705 POINTS
TCL: Setting parameter alchLambda2 to 0.8500000000000002
Info: NONBONDED TABLE R-SQUARED SPACING: 0.0625
Info: NONBONDED TABLE SIZE: 705 POINTS
TCL: Running for 1500000 steps
ETITLE: TS BOND ANGLE DIHED IMPRP ELECT VDW BOUNDARY MISC KINETIC TOTAL TEMP POTENTIAL TOTALAVG TEMPAVG PRESSURE GPRESSURE VOLUME PRESSAVG GPRESSAVG
ENERGY: 0 1.5826 6.7346 3.2623 0.0000 -10528.9585 1401.1305 0.0000 0.0000 1684.7592 -7431.4894 291.1933 -9116.2486 -7431.4894 291.1933 -270.8020 -183.1562 29995.3387 -270.8020 -183.1562
ENERGY: 300000 1.5290 8.1576 5.9767 0.0000 -10498.7538 1393.7741 0.0000 0.0000 1746.1256 -7343.1908 301.7999 -9089.3164 -7357.0008 300.3545 -168.6619 -75.9605 30377.4911 -214.5745 -126.3514
ENERGY: 600000 3.4618 9.9968 2.5209 0.0000 -10660.0890 1448.7087 0.0000 0.0000 1753.6492 -7441.7516 303.1003 -9195.4008 -7373.5299 299.9032 113.4577 188.5659 29776.7774 -233.0521 -151.9435
ENERGY: 900000 2.2977 7.3170 5.4023 0.0000 -10548.5455 1450.9831 0.0000 0.0000 1761.4011 -7321.1444 304.4401 -9082.5454 -7366.0565 300.2097 245.0541 345.9070 30364.0416 -124.8968 -56.9699
ENERGY: 1200000 3.5299 7.4713 7.0608 0.0000 -10470.1382 1407.2304 0.0000 0.0000 1750.9723 -7293.8734 302.6376 -9044.8457 -7371.4939 299.4840 -6.2653 112.7553 30147.1572 -148.7600 -71.0669
ENERGY: 1500000 4.4759 7.3423 5.8273 0.0000 -10392.8783 1347.9122 0.0000 0.0000 1748.6519 -7278.6688 302.2365 -9027.3208 -7366.1758 300.5652 -533.8720 -485.6679 30086.5186 -147.2144 -76.5474
TCL: Running FEP window  18: Lambda1 0.8500000000000002 Lambda2 0.9000000000000002 [dLambda 0.050000000000000044]
TCL: Setting parameter firsttimestep to 0
TCL: Setting parameter alchLambda to 0.8500000000000002
Info: NONBONDED TABLE R-SQUARED SPACING: 0.0625
Info: NONBONDED TABLE SIZE: 705 POINTS
TCL: Setting parameter alchLambda2 to 0.9000000000000002
Info: NONBONDED TABLE R-SQUARED SPACING: 0.0625
Info: NONBONDED TABLE SIZE: 705 POINTS
TCL: Running for 1500000 steps
ETITLE: TS BOND ANGLE DIHED IMPRP ELECT VDW BOUNDARY MISC KINETIC TOTAL TEMP POTENTIAL TOTALAVG TEMPAVG PRESSURE GPRESSURE VOLUME PRESSAVG GPRESSAVG
ENERGY: 0 4.4759 7.3423 5.8273 0.0000 -10393.2022 1348.6832 0.0000 0.0000 1747.7515 -7279.1221 302.0809 -9026.8736 -7279.1221 302.0809 -535.6462 -461.1709 30086.5186 -535.6462 -461.1709
ENERGY: 300000 2.5377 6.2495 5.6466 0.0000 -10463.1040 1339.4342 0.0000 0.0000 1780.7761 -7328.4599 307.7889 -9109.2360 -7313.9456 302.9187 -689.5060 -619.1161 30095.8276 -384.8829 -307.4922
ENERGY: 600000 2.8971 9.3888 6.9618 0.0000 -10453.4318 1343.4860 0.0000 0.0000 1645.5576 -7445.1405 284.4177 -9090.6981 -7341.9796 300.7787 -672.8432 -643.7017 30081.7654 -123.0531 -57.5434
ENERGY: 900000 3.5383 9.4632 4.4154 0.0000 -10460.7762 1363.4391 0.0000 0.0000 1714.8586 -7365.0616 296.3957 -9079.9202 -7355.4716 299.2588 -407.6107 -360.8262 30177.4103 -203.2499 -144.1341
ENERGY: 1200000 3.1632 7.9041 3.6382 0.0000 -10476.5349 1332.3498 0.0000 0.0000 1749.2475 -7380.2322 302.3395 -9129.4797 -7366.5346 299.7418 -380.5160 -300.9687 29644.9269 -196.7412 -143.9230
ENERGY: 1500000 3.1565 9.9554 4.6290 0.0000 -10597.8008 1442.5047 0.0000 0.0000 1723.9003 -7413.6549 297.9585 -9137.5551 -7370.1231 299.1361 -5.8330 48.3537 30256.5606 -210.0761 -155.6814
TCL: Running FEP window  19: Lambda1 0.9000000000000002 Lambda2 0.9500000000000003 [dLambda 0.050000000000000044]
TCL: Setting parameter firsttimestep to 0
TCL: Setting parameter alchLambda to 0.9000000000000002
Info: NONBONDED TABLE R-SQUARED SPACING: 0.0625
Info: NONBONDED TABLE SIZE: 705 POINTS
TCL: Setting parameter alchLambda2 to 0.9500000000000003
Info: NONBONDED TABLE R-SQUARED SPACING: 0.0625
Info: NONBONDED TABLE SIZE: 705 POINTS
TCL: Running for 1500000 steps
ETITLE: TS BOND ANGLE DIHED IMPRP ELECT VDW BOUNDARY MISC KINETIC TOTAL TEMP POTENTIAL TOTALAVG TEMPAVG PRESSURE GPRESSURE VOLUME PRESSAVG GPRESSAVG
ENERGY: 0 3.1565 9.9554 4.6290 0.0000 -10598.9934 1443.0672 0.0000 0.0000 1723.0423 -7415.1429 297.8102 -9138.1853 -7415.1429 297.8102 -26.2990 71.5331 30256.5606 -26.2990 71.5331
ENERGY: 300000 0.8361 9.7382 4.1637 0.0000 -10597.0132 1511.3393 0.0000 0.0000 1719.3254 -7351.6105 297.1678 -9070.9359 -7357.4381 298.9676 955.8060 1004.5057 29844.0330 6.0618 74.0089
ENERGY: 600000 3.4494 6.1868 3.0823 0.0000 -10474.8347 1351.4710 0.0000 0.0000 1744.3963 -7366.2489 301.5010 -9110.6452 -7368.5953 299.1722 -239.7734 -198.2571 29856.0302 -181.6631 -119.1663
ENERGY: 900000 1.7586 3.3029 4.5840 0.0000 -10519.5818 1381.7363 0.0000 0.0000 1794.6092 -7333.5909 310.1798 -9128.2000 -7363.2386 301.2197 -291.5676 -222.4174 29848.5337 -57.6076 6.6417
ENERGY: 1200000 1.9324 7.9680 5.6275 0.0000 -10425.2868 1355.3521 0.0000 0.0000 1734.4894 -7319.9175 299.7887 -9054.4069 -7363.5766 300.6726 -241.9322 -166.5490 29937.1594 -121.6448 -58.4395
ENERGY: 1500000 3.6510 7.1053 6.8808 0.0000 -10469.2763 1337.0079 0.0000 0.0000 1728.1145 -7386.5168 298.6868 -9114.6313 -7371.5766 300.1555 -721.7477 -678.9961 30025.4820 -186.4166 -124.4728
TCL: Running FEP window  20: Lambda1 0.9500000000000003 Lambda2 1.0    [dLambda 0.04999999999999971]
TCL: Setting parameter firsttimestep to 0
TCL: Setting parameter alchLambda to 0.9500000000000003
Info: NONBONDED TABLE R-SQUARED SPACING: 0.0625
Info: NONBONDED TABLE SIZE: 705 POINTS
TCL: Setting parameter alchLambda2 to 1.0
Info: NONBONDED TABLE R-SQUARED SPACING: 0.0625
Info: NONBONDED TABLE SIZE: 705 POINTS
TCL: Running for 1500000 steps
ETITLE: TS BOND ANGLE DIHED IMPRP ELECT VDW BOUNDARY MISC KINETIC TOTAL TEMP POTENTIAL TOTALAVG TEMPAVG PRESSURE GPRESSURE VOLUME PRESSAVG GPRESSAVG
ENERGY: 0 3.6510 7.1053 6.8808 0.0000 -10469.7189 1336.4655 0.0000 0.0000 1727.2512 -7388.3651 298.5376 -9115.6163 -7388.3651 298.5376 -748.9656 -669.6381 30025.4820 -748.9656 -669.6381
ENERGY: 300000 5.6965 6.4436 5.3505 0.0000 -10466.7505 1385.4033 0.0000 0.0000 1737.2896 -7326.5670 300.2727 -9063.8565 -7339.7067 299.6299 3.9878 87.3207 29958.9358 -174.4623 -105.4318
ENERGY: 600000 4.6292 8.6824 2.8843 0.0000 -10548.7862 1420.8980 0.0000 0.0000 1767.2882 -7344.4040 305.4576 -9111.6922 -7346.8118 299.8609 205.5977 284.3630 29682.7437 -77.8895 -17.9201
ENERGY: 900000 2.1495 6.4473 2.7656 0.0000 -10582.1338 1441.8094 0.0000 0.0000 1755.8803 -7373.0817 303.4859 -9128.9620 -7356.6600 300.1532 -64.5235 -28.9000 30390.5390 -70.1310 -15.2948
ENERGY: 1200000 2.5281 8.1309 6.6758 0.0000 -10629.4890 1453.0680 0.0000 0.0000 1777.8698 -7381.2164 307.2865 -9159.0862 -7367.2821 300.0954 444.3819 534.5291 29604.5701 -61.7565 -8.1460
ENERGY: 1500000 3.1290 9.0843 4.3864 0.0000 -10500.3923 1457.6854 0.0000 0.0000 1751.2148 -7274.8923 302.6795 -9026.1071 -7355.0852 300.5441 576.9111 666.8692 30151.9911 -34.6742 22.7690
TCL: Exiting due to exit command.
