Info: SIMULATION PARAMETERS:
Info: TIMESTEP               2
Info: NUMBER OF STEPS        0
Info: STEPS PER CYCLE        10
Info: PERIODIC CELL BASIS 1  30.8607 0 0
Info: PERIODIC CELL BASIS 2  0 33.767 0
Info: PERIODIC CELL BASIS 3  0 0 29.8611
Info: PERIODIC CELL CENTER   0 0 0
Info: WRAPPING WATERS AROUND PERIODIC BOUNDARIES ON OUTPUT.
Info: WRAPPING ALL CLUSTERS AROUND PERIODIC BOUNDARIES ON OUTPUT.
Info: FIRST LDB TIMESTEP     50
Info: LAST LDB TIMESTEP     -1
Info: HOM BACKGROUND SCALING 1
Info: PME BACKGROUND SCALING 1
Info: MIN ATOMS PER PATCH    40
Info: EMPTY PATCH LOAD       40 ATOMS
Info: VELOCITY FILE          mobley_6060301_equil.vel
Info: CENTER OF MASS MOVING INITIALLY? NO
Info: DIELECTRIC             1
Info: EXCLUDE                SCALED ONE-FOUR
Info: 1-4 ELECTROSTATICS SCALED BY 0.833333
Info: MODIFIED 1-4 VDW PARAMETERS WILL BE USED
Info: DCD FILENAME           mobley_6060301_prod.dcd
Info: DCD FREQUENCY          100000
Info: DCD FIRST STEP         100000
Info: DCD FILE WILL CONTAIN UNIT CELL DATA
Info: XST FILENAME           mobley_6060301_prod.xst
Info: XST FREQUENCY          100000
Info: NO VELOCITY DCD OUTPUT
Info: NO FORCE DCD OUTPUT
Info: OUTPUT FILENAME        mobley_6060301_prod
Info: BINARY OUTPUT FILES WILL BE USED
Info: RESTART FILENAME       mobley_6060301_prod.restart
Info: RESTART FREQUENCY      100000
Info: BINARY RESTART FILES WILL BE USED
Info: CUTOFF                 9
Info: PAIRLIST DISTANCE      11
Info: PAIRLIST SHRINK RATE   0.01
Info: PAIRLIST GROW RATE     0.01
Info: PAIRLIST TRIGGER       0.3
Info: PAIRLISTS PER CYCLE    2
Info: PAIRLISTS ENABLED
Info: MARGIN                 2
Info: HYDROGEN GROUP CUTOFF  2.5
Info: PATCH DIMENSION        15.5
Info: ENERGY OUTPUT STEPS    100000
Info: ENERGY EVALUATION STEPS    100000
Info: OUTPUT ENERGY PRECISION 4
Info: CROSSTERM ENERGY INCLUDED IN DIHEDRAL
Info: TIMING OUTPUT STEPS    1000000
Info: PRESSURE OUTPUT STEPS  100000
Info: ALCHEMICAL FEP ON
Info: FEP CURRENT LAMBDA VALUE     1
Info: FEP COMPARISON LAMBDA VALUE  0.95
Info: FEP INTRA-ALCHEMICAL NON-BONDED INTERACTIONS WILL BE RETAINED
Info: FEP INTRA-ALCHEMICAL BONDED INTERACTIONS WILL BE RETAINED
Info: FEP VDW SHIFTING COEFFICIENT 5
Info: FEP ELEC. ACTIVE FOR ANNIHILATED PARTICLES BETWEEN LAMBDA = 0 AND LAMBDA = 0.5
Info: FEP ELEC. ACTIVE FOR EXNIHILATED PARTICLES BETWEEN LAMBDA = 0.5 AND LAMBDA = 1
Info: FEP VDW ACTIVE FOR ANNIHILATED PARTICLES BETWEEN LAMBDA = 0 AND LAMBDA = 1
Info: FEP VDW ACTIVE FOR EXNIHILATED PARTICLES BETWEEN LAMBDA = 0 AND LAMBDA = 1
Info: FEP BOND ACTIVE FOR ANNIHILATED PARTICLES BETWEEN LAMBDA = 1 AND LAMBDA = 1
Info: FEP BOND ACTIVE FOR EXNIHILATED PARTICLES BETWEEN LAMBDA = 0 AND LAMBDA = 0
Info: LANGEVIN DYNAMICS ACTIVE
Info: LANGEVIN TEMPERATURE   300
Info: LANGEVIN USING BBK INTEGRATOR
Info: LANGEVIN DAMPING COEFFICIENT IS 1 INVERSE PS
Info: LANGEVIN DYNAMICS APPLIED TO HYDROGENS
Info: LANGEVIN PISTON PRESSURE CONTROL ACTIVE
Info:        TARGET PRESSURE IS 1.01325 BAR
Info:     OSCILLATION PERIOD IS 50 FS
Info:             DECAY TIME IS 25 FS
Info:     PISTON TEMPERATURE IS 300 K
Info:       PRESSURE CONTROL IS GROUP-BASED
Info:    INITIAL STRAIN RATE IS 0.000442695 0.000442695 0.000442695
Info:       CELL FLUCTUATION IS ISOTROPIC
Info: PARTICLE MESH EWALD (PME) ACTIVE
Info: PME TOLERANCE               1e-06
Info: PME EWALD COEFFICIENT       0.348832
Info: PME INTERPOLATION ORDER     4
Info: PME GRID DIMENSIONS         32 36 32
Info: PME MAXIMUM GRID SPACING    1
Info: PME CALCULATION WILL BE PERFORMED ON GPU
Info: FULL ELECTROSTATIC EVALUATION FREQUENCY      2
Info: USING VERLET I (r-RESPA) MTS SCHEME.
Info: C1 SPLITTING OF LONG RANGE ELECTROSTATICS
Info: PLACING ATOMS IN PATCHES BY HYDROGEN GROUPS
Info: RIGID BONDS TO HYDROGEN : ALL
Info:         ERROR TOLERANCE : 1e-08
Info:          MAX ITERATIONS : 100
Info: RIGID WATER USING SETTLE ALGORITHM
Info: RANDOM NUMBER SEED     1743977255
Info: USE HYDROGEN BONDS?    NO
Info: Using AMBER format force field!
Info: AMBER PARM FILE        mobley_6060301.prmtop
Info: COORDINATE PDB         mobley_6060301.pdb
Info: Exclusions will be read from PARM file!
Info: SCNB (VDW SCALING)     2
Info: USING ARITHMETIC MEAN TO COMBINE L-J SIGMA PARAMETERS
Info: BINARY COORDINATES     mobley_6060301_equil.coor
Info: SUMMARY OF PARAMETERS:
Info: 7 BONDS
Info: 9 ANGLES
Info:   9 HARMONIC
Info:   0 COSINE-BASED
Info: 7 DIHEDRAL
Info: 0 IMPROPER
Info: 0 CROSSTERM
Info: 0 VDW
Info: 28 VDW_PAIRS
Info: 0 NBTHOLE_PAIRS
Info: To read alchdata from file: mobley_6060301.pdb
Info: To read alchflag data from column: 5
Info: STRUCTURE SUMMARY:
Info: 2974 ATOMS
Info: 2973 BONDS
Info: 39 ANGLES
Info: 57 DIHEDRALS
Info: 0 IMPROPERS
Info: 0 CROSSTERMS
Info: 3063 EXCLUSIONS
Info: 2967 RIGID BONDS
Info: ALCH: 0 ATOMS TO DISAPPEAR IN FINAL STATE
Info: ALCH: 22 ATOMS TO APPEAR IN FINAL STATE
Info: 5955 DEGREES OF FREEDOM
Info: 991 HYDROGEN GROUPS
Info: 4 ATOMS IN LARGEST HYDROGEN GROUP
Info: 991 MIGRATION GROUPS
Info: 4 ATOMS IN LARGEST MIGRATION GROUP
Info: TOTAL MASS = 17828.9 amu
Info: TOTAL CHARGE = -9.9957e-05 e
Info: MASS DENSITY = 0.951437 g/cm^3
Info: ATOM DENSITY = 0.0955733 atoms/A^3
Info: ADDED 0 IMPLICIT EXCLUSIONS
Info: NONBONDED TABLE R-SQUARED SPACING: 0.0625
Info: NONBONDED TABLE SIZE: 705 POINTS
Info: REMOVING COM VELOCITY 0.0352011 -0.0284495 -0.0916632
Info: Use 3D box decompostion in PME FFT.
Info: Updated CUDA force table with 4096 elements.
Info: Updated CUDA LJ table with 7 x 7 elements.
Info: Found 25 unique exclusion lists needing 76 bytes
TCL: Running for 1500000 steps
ETITLE: TS BOND ANGLE DIHED IMPRP ELECT VDW BOUNDARY MISC KINETIC TOTAL TEMP POTENTIAL TOTALAVG TEMPAVG PRESSURE GPRESSURE VOLUME PRESSAVG GPRESSAVG
ENERGY: 0 2.6409 11.5553 4.2026 0.0000 -10680.9204 1382.2909 0.0000 0.0000 1773.4191 -7506.8116 299.7230 -9280.2307 -7506.8116 299.7230 -770.7402 -701.7804 31117.4828 -770.7402 -701.7804
ENERGY: 300000 2.3235 15.7629 2.9250 0.0000 -10762.8708 1407.7709 0.0000 0.0000 1788.0491 -7546.0394 302.1955 -9334.0885 -7512.1626 301.8097 -545.5531 -480.8408 30986.0088 -67.6266 15.0529
ENERGY: 600000 1.8002 12.7248 2.2141 0.0000 -10784.4741 1464.1973 0.0000 0.0000 1770.8554 -7532.6823 299.2897 -9303.5378 -7505.9502 302.0511 175.3597 222.8864 30457.9455 -98.6233 -35.8569
ENERGY: 900000 1.5969 10.1057 4.0931 0.0000 -10851.7766 1540.1386 0.0000 0.0000 1788.9064 -7506.9359 302.3404 -9295.8423 -7497.3503 302.6451 892.9349 909.4255 30277.4699 0.6458 58.2030
ENERGY: 1200000 0.9958 9.1781 2.8872 0.0000 -10760.3457 1429.0011 0.0000 0.0000 1853.9762 -7464.3072 313.3378 -9318.2834 -7490.4410 302.1252 -312.3834 -276.9698 30971.1272 3.2775 64.7672
ENERGY: 1500000 3.4098 9.1057 2.7613 0.0000 -10829.6516 1499.7210 0.0000 0.0000 1728.5148 -7586.1390 292.1337 -9314.6538 -7501.5764 301.5408 243.9060 349.8207 30289.7865 96.9724 157.4583
TCL: Running FEP window   2: Lambda1 0.95   Lambda2 0.8999999999999999 [dLambda -0.050000000000000044]
TCL: Setting parameter firsttimestep to 0
TCL: Setting parameter alchLambda to 0.95
Info: NONBONDED TABLE R-SQUARED SPACING: 0.0625
Info: NONBONDED TABLE SIZE: 705 POINTS
TCL: Setting parameter alchLambda2 to 0.8999999999999999
Info: NONBONDED TABLE R-SQUARED SPACING: 0.0625
Info: NONBONDED TABLE SIZE: 705 POINTS
TCL: Running for 1500000 steps
ETITLE: TS BOND ANGLE DIHED IMPRP ELECT VDW BOUNDARY MISC KINETIC TOTAL TEMP POTENTIAL TOTALAVG TEMPAVG PRESSURE GPRESSURE VOLUME PRESSAVG GPRESSAVG
ENERGY: 0 3.4098 9.1057 2.7613 0.0000 -10828.6075 1499.7734 0.0000 0.0000 1727.6256 -7585.9316 291.9835 -9313.5572 -7585.9316 291.9835 246.9785 340.7435 30289.7865 246.9785 340.7435
ENERGY: 300000 0.8088 14.9772 2.8495 0.0000 -10816.9773 1449.2488 0.0000 0.0000 1761.0324 -7588.0607 297.6295 -9349.0931 -7540.1632 296.6902 -100.6507 -42.0615 30586.7579 291.4768 373.5423
ENERGY: 600000 0.7420 11.2425 3.6264 0.0000 -10659.2874 1412.3110 0.0000 0.0000 1791.5124 -7439.8530 302.7809 -9231.3654 -7513.7663 299.0588 175.4225 198.9909 30291.4029 -49.2494 13.9102
ENERGY: 900000 4.4682 11.1972 2.3332 0.0000 -10657.8680 1371.5722 0.0000 0.0000 1716.8118 -7551.4853 290.1558 -9268.2971 -7506.0067 299.6218 -652.1943 -594.0426 30620.0762 -97.9045 -30.9812
ENERGY: 1200000 4.9400 6.9270 3.1430 0.0000 -10775.0450 1432.2842 0.0000 0.0000 1725.5376 -7602.2131 291.6306 -9327.7508 -7513.1334 298.9826 -75.4752 -45.8037 30444.2801 -114.4264 -45.1434
ENERGY: 1500000 4.5003 11.4472 2.7157 0.0000 -10952.4901 1537.3078 0.0000 0.0000 1758.3614 -7638.1576 297.1781 -9396.5191 -7512.0237 299.5555 113.5942 150.1102 30780.9570 -198.3748 -127.3572
TCL: Running FEP window   3: Lambda1 0.8999999999999999 Lambda2 0.8499999999999999 [dLambda -0.050000000000000044]
TCL: Setting parameter firsttimestep to 0
TCL: Setting parameter alchLambda to 0.8999999999999999
Info: NONBONDED TABLE R-SQUARED SPACING: 0.0625
Info: NONBONDED TABLE SIZE: 705 POINTS
TCL: Setting parameter alchLambda2 to 0.8499999999999999
Info: NONBONDED TABLE R-SQUARED SPACING: 0.0625
Info: NONBONDED TABLE SIZE: 705 POINTS
TCL: Running for 1500000 steps
ETITLE: TS BOND ANGLE DIHED IMPRP ELECT VDW BOUNDARY MISC KINETIC TOTAL TEMP POTENTIAL TOTALAVG TEMPAVG PRESSURE GPRESSURE VOLUME PRESSAVG GPRESSAVG
ENERGY: 0 4.5003 11.4472 2.7157 0.0000 -10951.3580 1537.4474 0.0000 0.0000 1757.4670 -7637.7804 297.0269 -9395.2474 -7637.7804 297.0269 72.8510 142.7307 30780.9570 72.8510 142.7307
ENERGY: 300000 1.6280 12.5201 2.2598 0.0000 -10702.5854 1395.2656 0.0000 0.0000 1774.7952 -7516.1167 299.9555 -9290.9119 -7558.1943 299.6000 -260.1779 -240.8475 30563.3360 212.1989 272.1279
ENERGY: 600000 2.4148 6.6343 4.3486 0.0000 -10615.9882 1370.9217 0.0000 0.0000 1794.8675 -7436.8013 303.3479 -9231.6688 -7537.2347 298.7936 -211.2368 -167.7929 30294.1531 129.2499 179.3035
ENERGY: 900000 1.4733 11.0283 4.9201 0.0000 -10733.7428 1394.8346 0.0000 0.0000 1779.5917 -7541.8948 300.7662 -9321.4865 -7540.2682 297.9292 -625.7265 -500.4286 30460.8766 15.1117 68.1001
ENERGY: 1200000 1.3417 11.3015 2.7220 0.0000 -10861.9485 1494.1194 0.0000 0.0000 1717.6781 -7634.7858 290.3023 -9352.4639 -7552.8769 297.4516 327.8138 358.2351 30295.7349 63.6326 119.6697
ENERGY: 1500000 1.4557 10.6543 3.0891 0.0000 -10910.8195 1529.2445 0.0000 0.0000 1780.8603 -7585.5156 300.9806 -9366.3759 -7554.9797 297.7734 594.4341 649.1760 30202.9728 58.7360 119.6146
TCL: Running FEP window   4: Lambda1 0.8499999999999999 Lambda2 0.7999999999999998 [dLambda -0.050000000000000044]
TCL: Setting parameter firsttimestep to 0
TCL: Setting parameter alchLambda to 0.8499999999999999
Info: NONBONDED TABLE R-SQUARED SPACING: 0.0625
Info: NONBONDED TABLE SIZE: 705 POINTS
TCL: Setting parameter alchLambda2 to 0.7999999999999998
Info: NONBONDED TABLE R-SQUARED SPACING: 0.0625
Info: NONBONDED TABLE SIZE: 705 POINTS
TCL: Running for 1500000 steps
ETITLE: TS BOND ANGLE DIHED IMPRP ELECT VDW BOUNDARY MISC KINETIC TOTAL TEMP POTENTIAL TOTALAVG TEMPAVG PRESSURE GPRESSURE VOLUME PRESSAVG GPRESSAVG
ENERGY: 0 1.4557 10.6543 3.0891 0.0000 -10909.1316 1528.5443 0.0000 0.0000 1780.0129 -7585.3753 300.8374 -9365.3882 -7585.3753 300.8374 544.5982 632.9740 30202.9728 544.5982 632.9740
ENERGY: 300000 1.6887 13.2177 2.3995 0.0000 -10758.6713 1495.5132 0.0000 0.0000 1704.3867 -7541.4655 288.0559 -9245.8522 -7528.0482 299.1549 730.0114 764.7784 30159.9140 868.4354 932.5364
ENERGY: 600000 1.5742 7.5407 2.9730 0.0000 -10587.6579 1415.6880 0.0000 0.0000 1717.1733 -7442.7087 290.2169 -9159.8819 -7509.1426 298.6396 26.2861 50.1375 30855.3370 466.4309 529.2379
ENERGY: 900000 1.1234 11.5548 2.4664 0.0000 -10805.8698 1420.5723 0.0000 0.0000 1761.3611 -7608.7917 297.6850 -9370.1528 -7523.2518 298.7910 -185.3447 -132.8452 30163.6930 236.6979 290.5496
ENERGY: 1200000 0.5277 8.6123 3.4084 0.0000 -10843.3704 1511.1256 0.0000 0.0000 1785.9601 -7533.7363 301.8425 -9319.6964 -7528.5458 298.6329 551.4249 606.2676 30632.7037 273.9106 335.9937
ENERGY: 1500000 0.6433 10.5571 4.0452 0.0000 -10680.2492 1469.9360 0.0000 0.0000 1748.3377 -7446.7300 295.4840 -9195.0677 -7522.6452 298.6901 561.0897 643.2348 30422.4753 237.9221 303.6863
TCL: Running FEP window   5: Lambda1 0.7999999999999998 Lambda2 0.7499999999999998 [dLambda -0.050000000000000044]
TCL: Setting parameter firsttimestep to 0
TCL: Setting parameter alchLambda to 0.7999999999999998
Info: NONBONDED TABLE R-SQUARED SPACING: 0.0625
Info: NONBONDED TABLE SIZE: 705 POINTS
TCL: Setting parameter alchLambda2 to 0.7499999999999998
Info: NONBONDED TABLE R-SQUARED SPACING: 0.0625
Info: NONBONDED TABLE SIZE: 705 POINTS
TCL: Running for 1500000 steps
ETITLE: TS BOND ANGLE DIHED IMPRP ELECT VDW BOUNDARY MISC KINETIC TOTAL TEMP POTENTIAL TOTALAVG TEMPAVG PRESSURE GPRESSURE VOLUME PRESSAVG GPRESSAVG
ENERGY: 0 0.6433 10.5571 4.0452 0.0000 -10678.6057 1469.5111 0.0000 0.0000 1747.4295 -7446.4195 295.3305 -9193.8490 -7446.4195 295.3305 548.7110 634.1568 30422.4753 548.7110 634.1568
ENERGY: 300000 1.6129 10.6117 4.9372 0.0000 -10700.8605 1361.1981 0.0000 0.0000 1767.8301 -7554.6706 298.7784 -9322.5007 -7497.9166 299.6672 -495.9824 -454.7310 30260.6728 -193.6026 -133.2498
ENERGY: 600000 0.5388 8.5470 2.9676 0.0000 -10822.7137 1507.6371 0.0000 0.0000 1772.6581 -7530.3651 299.5943 -9303.0232 -7492.6415 300.3983 758.0014 805.5614 29921.7060 105.7850 160.3690
ENERGY: 900000 1.1857 12.1460 4.0918 0.0000 -10692.8271 1406.1418 0.0000 0.0000 1771.3657 -7497.8960 299.3759 -9269.2617 -7493.2873 300.2447 -578.9889 -523.2939 31143.0680 -56.3247 4.6119
ENERGY: 1200000 2.0719 10.3006 3.7966 0.0000 -10679.5032 1374.6864 0.0000 0.0000 1836.0868 -7452.5608 310.3143 -9288.6477 -7497.1589 300.9192 -480.1630 -425.0913 30465.5374 -0.7973 60.2309
ENERGY: 1500000 1.1377 13.4344 2.6522 0.0000 -10729.0147 1425.4902 0.0000 0.0000 1758.8218 -7527.4784 297.2559 -9286.3002 -7507.2925 300.1788 -165.7368 -49.4702 30572.7297 -13.2601 50.1943
TCL: Running FEP window   6: Lambda1 0.7499999999999998 Lambda2 0.6999999999999997 [dLambda -0.050000000000000044]
TCL: Setting parameter firsttimestep to 0
TCL: Setting parameter alchLambda to 0.7499999999999998
Info: NONBONDED TABLE R-SQUARED SPACING: 0.0625
Info: NONBONDED TABLE SIZE: 705 POINTS
TCL: Setting parameter alchLambda2 to 0.6999999999999997
Info: NONBONDED TABLE R-SQUARED SPACING: 0.0625
Info: NONBONDED TABLE SIZE: 705 POINTS
TCL: Running for 1500000 steps
ETITLE: TS BOND ANGLE DIHED IMPRP ELECT VDW BOUNDARY MISC KINETIC TOTAL TEMP POTENTIAL TOTALAVG TEMPAVG PRESSURE GPRESSURE VOLUME PRESSAVG GPRESSAVG
ENERGY: 0 1.1377 13.4344 2.6522 0.0000 -10727.8324 1425.4650 0.0000 0.0000 1757.9438 -7527.1993 297.1075 -9285.1431 -7527.1993 297.1075 -153.6184 -55.2411 30572.7297 -153.6184 -55.2411
ENERGY: 300000 1.5196 4.9997 3.0046 0.0000 -10771.1993 1450.3652 0.0000 0.0000 1803.9029 -7507.4073 304.8750 -9311.3102 -7541.4611 298.8055 19.4109 150.3512 30547.0958 -80.0141 6.8601
ENERGY: 600000 0.7783 8.3359 4.9244 0.0000 -10777.7589 1465.7012 0.0000 0.0000 1772.9446 -7525.0744 299.6428 -9298.0190 -7527.3919 300.8396 -64.6585 -15.6425 31029.8359 -50.0579 16.4825
ENERGY: 900000 3.0903 9.7063 2.5690 0.0000 -10699.9028 1410.6909 0.0000 0.0000 1751.4718 -7522.3745 296.0137 -9273.8462 -7512.7790 300.1069 -147.2325 -46.1523 30504.6823 38.7778 105.0774
ENERGY: 1200000 3.2756 7.0317 2.6582 0.0000 -10838.6356 1524.9519 0.0000 0.0000 1833.2670 -7467.4514 309.8377 -9300.7184 -7503.7180 302.6509 848.7567 831.1161 30436.0299 132.1576 186.9245
ENERGY: 1500000 2.6679 8.0938 2.3209 0.0000 -10782.8772 1459.4454 0.0000 0.0000 1797.2260 -7513.1232 303.7465 -9310.3492 -7498.3637 303.3250 13.9859 87.4580 30355.5197 95.7486 155.1203
TCL: Running FEP window   7: Lambda1 0.6999999999999997 Lambda2 0.6499999999999997 [dLambda -0.050000000000000044]
TCL: Setting parameter firsttimestep to 0
TCL: Setting parameter alchLambda to 0.6999999999999997
Info: NONBONDED TABLE R-SQUARED SPACING: 0.0625
Info: NONBONDED TABLE SIZE: 705 POINTS
TCL: Setting parameter alchLambda2 to 0.6499999999999997
Info: NONBONDED TABLE R-SQUARED SPACING: 0.0625
Info: NONBONDED TABLE SIZE: 705 POINTS
TCL: Running for 1500000 steps
ETITLE: TS BOND ANGLE DIHED IMPRP ELECT VDW BOUNDARY MISC KINETIC TOTAL TEMP POTENTIAL TOTALAVG TEMPAVG PRESSURE GPRESSURE VOLUME PRESSAVG GPRESSAVG
ENERGY: 0 2.6679 8.0938 2.3209 0.0000 -10781.8505 1458.9278 0.0000 0.0000 1796.3465 -7513.4935 303.5979 -9309.8401 -7513.4935 303.5979 -4.6810 75.4715 30355.5197 -4.6810 75.4715
ENERGY: 300000 3.6595 11.0518 2.1351 0.0000 -10716.0458 1394.5841 0.0000 0.0000 1768.6101 -7536.0051 298.9102 -9304.6152 -7515.0861 299.7997 -631.0886 -549.4701 30692.8543 -442.7145 -366.1524
ENERGY: 600000 3.0760 14.0622 5.7283 0.0000 -10686.5611 1351.1472 0.0000 0.0000 1761.4931 -7551.0542 297.7074 -9312.5473 -7531.8197 300.1954 -1041.5720 -1011.8532 30848.1454 -290.3147 -221.6058
ENERGY: 900000 3.1457 9.4874 3.0177 0.0000 -10694.6938 1392.0764 0.0000 0.0000 1799.3358 -7487.6308 304.1031 -9286.9666 -7528.5477 300.0303 -576.0186 -530.3887 30716.5837 -417.8274 -342.4866
ENERGY: 1200000 0.9730 5.2435 2.8676 0.0000 -10697.8471 1464.4116 0.0000 0.0000 1760.0196 -7464.3317 297.4583 -9224.3513 -7526.7843 299.6687 415.6472 407.7263 30646.8026 -182.9562 -118.1177
ENERGY: 1500000 2.6897 11.4665 3.7754 0.0000 -10577.2710 1316.3705 0.0000 0.0000 1769.9872 -7472.9817 299.1429 -9242.9689 -7521.5492 300.3626 -863.1172 -732.9331 30512.1371 -225.9689 -154.0129
TCL: Running FEP window   8: Lambda1 0.6499999999999997 Lambda2 0.5999999999999996 [dLambda -0.050000000000000044]
TCL: Setting parameter firsttimestep to 0
TCL: Setting parameter alchLambda to 0.6499999999999997
Info: NONBONDED TABLE R-SQUARED SPACING: 0.0625
Info: NONBONDED TABLE SIZE: 705 POINTS
TCL: Setting parameter alchLambda2 to 0.5999999999999996
Info: NONBONDED TABLE R-SQUARED SPACING: 0.0625
Info: NONBONDED TABLE SIZE: 705 POINTS
TCL: Running for 1500000 steps
ETITLE: TS BOND ANGLE DIHED IMPRP ELECT VDW BOUNDARY MISC KINETIC TOTAL TEMP POTENTIAL TOTALAVG TEMPAVG PRESSURE GPRESSURE VOLUME PRESSAVG GPRESSAVG
ENERGY: 0 2.6897 11.4665 3.7754 0.0000 -10575.3748 1315.7570 0.0000 0.0000 1769.1323 -7472.5539 298.9985 -9241.6863 -7472.5539 298.9985 -819.9583 -742.7365 30512.1371 -819.9583 -742.7365
ENERGY: 300000 1.5309 15.5750 3.2431 0.0000 -10635.5872 1351.9283 0.0000 0.0000 1799.4964 -7463.8134 304.1302 -9263.3098 -7487.1497 298.7654 -495.5498 -434.2699 30302.9601 -385.4803 -305.8346
ENERGY: 600000 0.7587 11.7302 3.4783 0.0000 -10755.7838 1478.1245 0.0000 0.0000 1750.2174 -7511.4747 295.8017 -9261.6921 -7510.6234 297.2773 242.4900 277.9879 30766.0172 -220.2801 -153.0560
ENERGY: 900000 1.6219 10.6537 5.1711 0.0000 -10825.3346 1459.4900 0.0000 0.0000 1802.2267 -7546.1712 304.5917 -9348.3979 -7523.4006 297.6301 66.8995 152.7505 30418.8367 -321.6546 -264.8798
ENERGY: 1200000 4.1764 9.0228 3.3957 0.0000 -10741.4040 1448.2388 0.0000 0.0000 1797.6523 -7478.9181 303.8186 -9276.5704 -7525.8954 298.2731 -42.7710 10.9962 30762.4383 -331.7523 -281.0854
ENERGY: 1500000 4.6063 12.1408 4.7183 0.0000 -10630.6737 1392.6645 0.0000 0.0000 1763.3630 -7453.1808 298.0234 -9216.5438 -7515.9988 298.9783 -353.2970 -301.0528 30629.1644 -327.5438 -278.2763
TCL: Running FEP window   9: Lambda1 0.5999999999999996 Lambda2 0.5499999999999996 [dLambda -0.050000000000000044]
TCL: Setting parameter firsttimestep to 0
TCL: Setting parameter alchLambda to 0.5999999999999996
Info: NONBONDED TABLE R-SQUARED SPACING: 0.0625
Info: NONBONDED TABLE SIZE: 705 POINTS
TCL: Setting parameter alchLambda2 to 0.5499999999999996
Info: NONBONDED TABLE R-SQUARED SPACING: 0.0625
Info: NONBONDED TABLE SIZE: 705 POINTS
TCL: Running for 1500000 steps
ETITLE: TS BOND ANGLE DIHED IMPRP ELECT VDW BOUNDARY MISC KINETIC TOTAL TEMP POTENTIAL TOTALAVG TEMPAVG PRESSURE GPRESSURE VOLUME PRESSAVG GPRESSAVG
ENERGY: 0 4.6063 12.1408 4.7183 0.0000 -10628.5316 1392.2164 0.0000 0.0000 1762.4658 -7452.3840 297.8717 -9214.8498 -7452.3840 297.8717 -383.0734 -305.1805 30629.1644 -383.0734 -305.1805
ENERGY: 300000 1.7983 11.0151 4.7219 0.0000 -10721.8441 1407.1171 0.0000 0.0000 1790.4866 -7506.7051 302.6075 -9297.1917 -7501.1861 299.7552 -271.6566 -187.2042 30299.6062 -88.5437 3.4859
ENERGY: 600000 2.8197 7.4706 3.4028 0.0000 -10717.0895 1442.7566 0.0000 0.0000 1724.8212 -7535.8186 291.5095 -9260.6398 -7509.3798 298.7241 83.4261 72.9517 30818.4534 -89.6714 -15.4767
ENERGY: 900000 0.9305 10.7298 4.0876 0.0000 -10736.2943 1444.8248 0.0000 0.0000 1777.6858 -7498.0357 300.4441 -9275.7215 -7491.0952 301.3511 226.7461 211.1662 30557.3359 -104.3195 -35.7242
ENERGY: 1200000 4.2425 9.0992 3.7081 0.0000 -10497.6578 1361.8927 0.0000 0.0000 1750.4404 -7368.2749 295.8394 -9118.7153 -7484.6921 300.7978 -555.1079 -487.0328 31087.3798 -120.6039 -50.2726
ENERGY: 1500000 0.6616 14.9641 7.3823 0.0000 -10787.1794 1502.1960 0.0000 0.0000 1740.9791 -7520.9963 294.2403 -9261.9754 -7494.2122 300.1052 283.8053 318.4551 30984.9964 -110.4999 -45.4290
TCL: Running FEP window  10: Lambda1 0.5499999999999996 Lambda2 0.4999999999999996 [dLambda -0.04999999999999999]
TCL: Setting parameter firsttimestep to 0
TCL: Setting parameter alchLambda to 0.5499999999999996
Info: NONBONDED TABLE R-SQUARED SPACING: 0.0625
Info: NONBONDED TABLE SIZE: 705 POINTS
TCL: Setting parameter alchLambda2 to 0.4999999999999996
Info: NONBONDED TABLE R-SQUARED SPACING: 0.0625
Info: NONBONDED TABLE SIZE: 705 POINTS
TCL: Running for 1500000 steps
ETITLE: TS BOND ANGLE DIHED IMPRP ELECT VDW BOUNDARY MISC KINETIC TOTAL TEMP POTENTIAL TOTALAVG TEMPAVG PRESSURE GPRESSURE VOLUME PRESSAVG GPRESSAVG
ENERGY: 0 0.6616 14.9641 7.3823 0.0000 -10786.3992 1502.5113 0.0000 0.0000 1740.1201 -7520.7598 294.0951 -9260.8799 -7520.7598 294.0951 238.7269 317.4198 30984.9964 238.7269 317.4198
ENERGY: 300000 1.0292 9.2878 3.8934 0.0000 -10785.9974 1545.5603 0.0000 0.0000 1755.3004 -7470.9263 296.6607 -9226.2268 -7481.4582 299.4506 1025.2461 1066.8298 30395.6866 318.6803 365.1917
ENERGY: 600000 2.8478 6.8302 3.8480 0.0000 -10780.8406 1383.7663 0.0000 0.0000 1752.7344 -7630.8139 296.2271 -9383.5483 -7514.2766 299.4411 -964.2875 -820.9021 30442.6245 -50.7661 10.6449
ENERGY: 900000 1.5768 6.1335 2.7708 0.0000 -10766.3602 1428.4248 0.0000 0.0000 1733.7044 -7593.7499 293.0108 -9327.4543 -7506.2052 298.8897 -196.4505 -178.8262 30260.0437 -235.3905 -181.0876
ENERGY: 1200000 2.9907 6.8593 3.5551 0.0000 -10762.0267 1432.7717 0.0000 0.0000 1685.9400 -7629.9098 284.9382 -9315.8498 -7519.9784 297.2223 -498.6136 -405.3776 30879.1197 -205.1810 -146.9518
ENERGY: 1500000 3.6906 10.7623 3.1418 0.0000 -10807.1016 1501.2088 0.0000 0.0000 1784.8236 -7503.4746 301.6504 -9288.2981 -7510.2372 298.2861 624.3735 636.6478 30253.4991 -122.4139 -63.9940
TCL: Running FEP window  11: Lambda1 0.4999999999999996 Lambda2 0.4499999999999996 [dLambda -0.04999999999999999]
TCL: Setting parameter firsttimestep to 0
TCL: Setting parameter alchLambda to 0.4999999999999996
Info: NONBONDED TABLE R-SQUARED SPACING: 0.0625
Info: NONBONDED TABLE SIZE: 705 POINTS
TCL: Setting parameter alchLambda2 to 0.4499999999999996
Info: NONBONDED TABLE R-SQUARED SPACING: 0.0625
Info: NONBONDED TABLE SIZE: 705 POINTS
TCL: Running for 1500000 steps
ETITLE: TS BOND ANGLE DIHED IMPRP ELECT VDW BOUNDARY MISC KINETIC TOTAL TEMP POTENTIAL TOTALAVG TEMPAVG PRESSURE GPRESSURE VOLUME PRESSAVG GPRESSAVG
ENERGY: 0 3.6906 10.7623 3.1418 0.0000 -10806.6559 1501.4350 0.0000 0.0000 1783.9316 -7503.6945 301.4996 -9287.6261 -7503.6945 301.4996 543.0393 630.6204 30253.4991 543.0393 630.6204
ENERGY: 300000 1.5090 9.0515 3.5758 0.0000 -10746.8539 1453.1774 0.0000 0.0000 1788.3792 -7491.1610 302.2513 -9279.5402 -7507.0506 298.6365 133.9635 166.4757 30596.2667 141.4062 214.9352
ENERGY: 600000 4.5923 18.8650 4.1689 0.0000 -10734.1481 1430.9674 0.0000 0.0000 1752.1338 -7523.4209 296.1255 -9275.5546 -7509.0252 299.0331 -170.4744 -78.2621 30474.2066 27.7177 110.8381
ENERGY: 900000 2.2952 11.5939 3.1552 0.0000 -10550.7541 1295.7605 0.0000 0.0000 1799.7299 -7438.2194 304.1697 -9237.9493 -7504.9471 299.1654 -1001.0037 -954.5712 30635.6657 -124.9298 -54.5422
ENERGY: 1200000 5.3117 10.7181 6.7371 0.0000 -10763.1019 1374.3158 0.0000 0.0000 1734.8853 -7631.1338 293.2104 -9366.0191 -7501.0330 299.9510 -1024.6557 -997.5252 30648.0951 -133.2417 -67.1277
ENERGY: 1500000 3.7814 10.2550 1.7660 0.0000 -10768.4956 1500.3476 0.0000 0.0000 1796.2426 -7456.1030 303.5803 -9252.3456 -7493.6635 301.0767 673.5891 729.0004 30549.2414 -121.5397 -58.3180
TCL: Running FEP window  12: Lambda1 0.4499999999999996 Lambda2 0.39999999999999963 [dLambda -0.04999999999999999]
TCL: Setting parameter firsttimestep to 0
TCL: Setting parameter alchLambda to 0.4499999999999996
Info: NONBONDED TABLE R-SQUARED SPACING: 0.0625
Info: NONBONDED TABLE SIZE: 705 POINTS
TCL: Setting parameter alchLambda2 to 0.39999999999999963
Info: NONBONDED TABLE R-SQUARED SPACING: 0.0625
Info: NONBONDED TABLE SIZE: 705 POINTS
TCL: Running for 1500000 steps
ETITLE: TS BOND ANGLE DIHED IMPRP ELECT VDW BOUNDARY MISC KINETIC TOTAL TEMP POTENTIAL TOTALAVG TEMPAVG PRESSURE GPRESSURE VOLUME PRESSAVG GPRESSAVG
ENERGY: 0 3.7814 10.2550 1.7660 0.0000 -10768.4952 1500.1775 0.0000 0.0000 1795.3207 -7457.1946 303.4245 -9252.5153 -7457.1946 303.4245 636.3326 723.5364 30549.2414 636.3326 723.5364
ENERGY: 300000 0.4083 11.8947 2.1140 0.0000 -10805.3542 1484.1133 0.0000 0.0000 1773.1241 -7533.6998 299.6731 -9306.8239 -7477.2837 301.5928 154.7758 232.4780 30659.2453 403.5244 483.5743
ENERGY: 600000 0.4023 9.7849 2.4924 0.0000 -10789.5357 1532.8911 0.0000 0.0000 1761.7432 -7482.2218 297.7496 -9243.9651 -7477.7062 302.2259 579.0582 700.5367 30760.9099 284.4575 360.3351
ENERGY: 900000 0.9391 7.0113 3.1794 0.0000 -10715.9998 1408.3327 0.0000 0.0000 1811.7497 -7484.7876 306.2011 -9296.5372 -7496.4544 302.4177 -45.4564 -6.2486 30253.6036 246.2317 306.8796
ENERGY: 1200000 1.3486 6.8208 2.4503 0.0000 -10851.5198 1469.8993 0.0000 0.0000 1772.8170 -7598.1839 299.6212 -9371.0009 -7509.1995 302.0474 4.5187 63.1452 30337.6826 260.0593 323.3571
ENERGY: 1500000 2.0173 9.8525 5.0795 0.0000 -10737.3187 1447.5868 0.0000 0.0000 1770.2328 -7502.5498 299.1844 -9272.7826 -7508.6532 301.2405 231.6322 295.0507 30284.6393 265.3504 330.9778
TCL: Running FEP window  13: Lambda1 0.39999999999999963 Lambda2 0.34999999999999964 [dLambda -0.04999999999999999]
TCL: Setting parameter firsttimestep to 0
TCL: Setting parameter alchLambda to 0.39999999999999963
Info: NONBONDED TABLE R-SQUARED SPACING: 0.0625
Info: NONBONDED TABLE SIZE: 705 POINTS
TCL: Setting parameter alchLambda2 to 0.34999999999999964
Info: NONBONDED TABLE R-SQUARED SPACING: 0.0625
Info: NONBONDED TABLE SIZE: 705 POINTS
TCL: Running for 1500000 steps
ETITLE: TS BOND ANGLE DIHED IMPRP ELECT VDW BOUNDARY MISC KINETIC TOTAL TEMP POTENTIAL TOTALAVG TEMPAVG PRESSURE GPRESSURE VOLUME PRESSAVG GPRESSAVG
ENERGY: 0 2.0173 9.8525 5.0795 0.0000 -10737.3184 1447.6994 0.0000 0.0000 1769.3392 -7503.3305 299.0334 -9272.6697 -7503.3305 299.0334 200.8163 292.6963 30284.6393 200.8163 292.6963
ENERGY: 300000 3.0695 16.7588 3.7891 0.0000 -10820.7041 1468.5477 0.0000 0.0000 1859.3188 -7469.2202 314.2407 -9328.5390 -7460.6577 306.1418 95.0269 129.6578 30406.8312 -231.2682 -156.9229
ENERGY: 600000 1.7117 6.7405 3.3383 0.0000 -10811.5444 1448.9434 0.0000 0.0000 1795.4962 -7555.3143 303.4542 -9350.8105 -7470.4242 304.4355 -188.5875 -135.3010 30582.1239 8.2942 66.2587
ENERGY: 900000 1.8711 12.5518 2.5295 0.0000 -10689.5859 1397.2606 0.0000 0.0000 1751.0902 -7524.2826 295.9492 -9275.3728 -7469.9336 303.2071 -556.8050 -498.0032 30699.0783 -124.0486 -65.1811
ENERGY: 1200000 1.4419 8.7472 4.2481 0.0000 -10636.4802 1377.4956 0.0000 0.0000 1752.2549 -7492.2926 296.1460 -9244.5475 -7474.2376 301.8657 -752.0353 -642.8224 31056.5300 -100.1484 -40.1615
ENERGY: 1500000 3.1128 14.7727 3.9018 0.0000 -10698.0624 1424.2579 0.0000 0.0000 1804.9596 -7447.0575 305.0536 -9252.0172 -7471.0069 303.6001 -12.3208 -15.5729 30308.0452 -41.3419 13.7355
TCL: Running FEP window  14: Lambda1 0.34999999999999964 Lambda2 0.29999999999999966 [dLambda -0.04999999999999999]
TCL: Setting parameter firsttimestep to 0
TCL: Setting parameter alchLambda to 0.34999999999999964
Info: NONBONDED TABLE R-SQUARED SPACING: 0.0625
Info: NONBONDED TABLE SIZE: 705 POINTS
TCL: Setting parameter alchLambda2 to 0.29999999999999966
Info: NONBONDED TABLE R-SQUARED SPACING: 0.0625
Info: NONBONDED TABLE SIZE: 705 POINTS
TCL: Running for 1500000 steps
ETITLE: TS BOND ANGLE DIHED IMPRP ELECT VDW BOUNDARY MISC KINETIC TOTAL TEMP POTENTIAL TOTALAVG TEMPAVG PRESSURE GPRESSURE VOLUME PRESSAVG GPRESSAVG
ENERGY: 0 3.1128 14.7727 3.9018 0.0000 -10698.0625 1424.6722 0.0000 0.0000 1804.0607 -7447.5424 304.9016 -9251.6030 -7447.5424 304.9016 -85.3513 -18.6834 30308.0452 -85.3513 -18.6834
ENERGY: 300000 1.4603 9.4227 2.6010 0.0000 -10750.3234 1416.2568 0.0000 0.0000 1789.2186 -7531.3640 302.3932 -9320.5826 -7463.2503 303.7547 -459.6977 -393.2339 30368.1903 -261.9319 -195.5263
ENERGY: 600000 0.9827 9.8466 6.0117 0.0000 -10665.4495 1413.9253 0.0000 0.0000 1764.2341 -7470.4490 298.1706 -9234.6832 -7482.8945 302.3205 -219.0107 -197.6858 30770.9276 -331.2049 -276.6007
ENERGY: 900000 0.3405 9.4835 3.4658 0.0000 -10856.5266 1483.8931 0.0000 0.0000 1761.6764 -7597.6673 297.7383 -9359.3437 -7492.1151 301.5385 323.4156 372.8852 30069.2855 -219.7722 -163.0732
ENERGY: 1200000 2.4119 7.6040 2.9794 0.0000 -10869.6713 1518.8595 0.0000 0.0000 1797.7577 -7540.0588 303.8364 -9337.8165 -7498.3023 301.8698 223.4112 302.9456 30608.6640 -120.6727 -52.2894
ENERGY: 1500000 2.5736 10.7490 4.4145 0.0000 -10728.9333 1462.8487 0.0000 0.0000 1759.3503 -7488.9973 297.3452 -9248.3476 -7497.9903 301.5589 438.9764 506.5724 30093.5151 -122.6625 -55.5637
TCL: Running FEP window  15: Lambda1 0.29999999999999966 Lambda2 0.24999999999999967 [dLambda -0.04999999999999999]
TCL: Setting parameter firsttimestep to 0
TCL: Setting parameter alchLambda to 0.29999999999999966
Info: NONBONDED TABLE R-SQUARED SPACING: 0.0625
Info: NONBONDED TABLE SIZE: 705 POINTS
TCL: Setting parameter alchLambda2 to 0.24999999999999967
Info: NONBONDED TABLE R-SQUARED SPACING: 0.0625
Info: NONBONDED TABLE SIZE: 705 POINTS
TCL: Running for 1500000 steps
ETITLE: TS BOND ANGLE DIHED IMPRP ELECT VDW BOUNDARY MISC KINETIC TOTAL TEMP POTENTIAL TOTALAVG TEMPAVG PRESSURE GPRESSURE VOLUME PRESSAVG GPRESSAVG
ENERGY: 0 2.5736 10.7490 4.4145 0.0000 -10728.9323 1462.5887 0.0000 0.0000 1758.4860 -7490.1206 297.1991 -9248.6066 -7490.1206 297.1991 420.7389 502.7473 30093.5151 420.7389 502.7473
ENERGY: 300000 0.4036 12.5781 5.7746 0.0000 -10687.0840 1382.5236 0.0000 0.0000 1729.5074 -7556.2967 292.3015 -9285.8040 -7481.3105 300.7572 -705.1119 -680.6892 30830.0518 -384.6084 -307.4932
ENERGY: 600000 2.9908 6.9246 3.4566 0.0000 -10813.3516 1471.0190 0.0000 0.0000 1758.4224 -7570.5383 297.1884 -9328.9606 -7492.4439 299.3458 298.5989 401.7566 29933.5041 -29.9959 46.1483
ENERGY: 900000 2.4579 5.9675 2.8217 0.0000 -10675.2303 1362.9180 0.0000 0.0000 1739.4508 -7561.6143 293.9820 -9301.0651 -7510.6294 298.0397 -839.7687 -827.3701 30894.6608 -153.3100 -81.2244
ENERGY: 1200000 2.8856 10.2677 3.1736 0.0000 -10709.8730 1471.2691 0.0000 0.0000 1724.7405 -7497.5364 291.4959 -9222.2769 -7506.6811 297.8033 294.9763 383.1236 30838.2760 -104.0647 -41.2690
ENERGY: 1500000 1.4342 9.7608 2.7914 0.0000 -10780.6282 1451.0666 0.0000 0.0000 1812.9919 -7502.5833 306.4111 -9315.5752 -7513.7403 298.1578 116.6362 162.4902 30247.4127 -66.3865 -1.7087
TCL: Running FEP window  16: Lambda1 0.24999999999999967 Lambda2 0.19999999999999968 [dLambda -0.04999999999999999]
TCL: Setting parameter firsttimestep to 0
TCL: Setting parameter alchLambda to 0.24999999999999967
Info: NONBONDED TABLE R-SQUARED SPACING: 0.0625
Info: NONBONDED TABLE SIZE: 705 POINTS
TCL: Setting parameter alchLambda2 to 0.19999999999999968
Info: NONBONDED TABLE R-SQUARED SPACING: 0.0625
Info: NONBONDED TABLE SIZE: 705 POINTS
TCL: Running for 1500000 steps
ETITLE: TS BOND ANGLE DIHED IMPRP ELECT VDW BOUNDARY MISC KINETIC TOTAL TEMP POTENTIAL TOTALAVG TEMPAVG PRESSURE GPRESSURE VOLUME PRESSAVG GPRESSAVG
ENERGY: 0 1.4342 9.7608 2.7914 0.0000 -10780.6285 1451.5925 0.0000 0.0000 1812.0997 -7502.9499 306.2603 -9315.0496 -7502.9499 306.2603 81.5260 159.3341 30247.4127 81.5260 159.3341
ENERGY: 300000 0.6847 12.8777 6.6126 0.0000 -10831.7420 1555.8989 0.0000 0.0000 1839.8234 -7415.8446 310.9458 -9255.6680 -7482.4521 307.1511 1071.0348 1135.5021 30341.5761 163.1387 209.6883
ENERGY: 600000 2.4540 8.2001 3.2692 0.0000 -10708.9358 1416.3314 0.0000 0.0000 1747.5914 -7531.0896 295.3578 -9278.6810 -7506.8738 303.1869 -272.9259 -202.0007 30397.8028 164.6693 225.4723
ENERGY: 900000 1.6208 6.9652 3.8424 0.0000 -10887.0941 1517.7519 0.0000 0.0000 1798.1850 -7558.7288 303.9086 -9356.9138 -7512.3913 302.9550 596.0143 617.6413 30024.0758 257.7830 320.2555
ENERGY: 1200000 2.4673 6.9154 3.1305 0.0000 -10696.5617 1435.1562 0.0000 0.0000 1780.7204 -7468.1718 300.9569 -9248.8923 -7498.0017 302.9928 -142.7436 -146.3964 30634.8155 120.3589 182.3095
ENERGY: 1500000 1.7462 10.4269 6.2998 0.0000 -10709.3978 1417.7034 0.0000 0.0000 1775.8049 -7497.4167 300.1262 -9273.2216 -7497.9213 302.5142 -161.4152 -147.9826 30409.6621 98.5892 161.7088
TCL: Running FEP window  17: Lambda1 0.19999999999999968 Lambda2 0.1499999999999997 [dLambda -0.04999999999999999]
TCL: Setting parameter firsttimestep to 0
TCL: Setting parameter alchLambda to 0.19999999999999968
Info: NONBONDED TABLE R-SQUARED SPACING: 0.0625
Info: NONBONDED TABLE SIZE: 705 POINTS
TCL: Setting parameter alchLambda2 to 0.1499999999999997
Info: NONBONDED TABLE R-SQUARED SPACING: 0.0625
Info: NONBONDED TABLE SIZE: 705 POINTS
TCL: Running for 1500000 steps
ETITLE: TS BOND ANGLE DIHED IMPRP ELECT VDW BOUNDARY MISC KINETIC TOTAL TEMP POTENTIAL TOTALAVG TEMPAVG PRESSURE GPRESSURE VOLUME PRESSAVG GPRESSAVG
ENERGY: 0 1.7462 10.4269 6.2998 0.0000 -10709.3974 1417.9423 0.0000 0.0000 1774.8976 -7498.0847 299.9728 -9272.9823 -7498.0847 299.9728 -236.4076 -150.6185 30409.6621 -236.4076 -150.6185
ENERGY: 300000 1.8063 9.7450 4.6063 0.0000 -10551.6646 1293.3368 0.0000 0.0000 1756.4536 -7485.7166 296.8556 -9242.1702 -7535.1050 294.9188 -979.5282 -868.3037 30323.6964 -270.2360 -180.2974
ENERGY: 600000 1.1593 6.1129 3.1735 0.0000 -10799.8942 1479.0752 0.0000 0.0000 1761.8536 -7548.5197 297.7683 -9310.3733 -7522.9452 297.0935 179.8131 281.9098 30279.4009 1.6135 69.4997
ENERGY: 900000 2.9686 15.5373 2.3852 0.0000 -10730.3982 1460.7344 0.0000 0.0000 1779.9940 -7468.7787 300.8342 -9248.7727 -7512.7692 298.2626 142.4725 296.3587 30352.3079 35.7119 108.3031
ENERGY: 1200000 0.9728 12.2050 3.2565 0.0000 -10565.8419 1384.4515 0.0000 0.0000 1828.1745 -7336.7816 308.9771 -9164.9561 -7507.8551 299.4376 -295.0797 -249.4722 30809.6448 -24.8488 43.1288
ENERGY: 1500000 2.1930 10.4968 3.5111 0.0000 -10740.5911 1421.0031 0.0000 0.0000 1795.2286 -7508.1585 303.4089 -9303.3870 -7512.7749 298.6388 -193.6976 -213.7069 30593.8935 -111.9029 -43.4728
TCL: Running FEP window  18: Lambda1 0.1499999999999997 Lambda2 0.09999999999999969 [dLambda -0.05 ]
TCL: Setting parameter firsttimestep to 0
TCL: Setting parameter alchLambda to 0.1499999999999997
Info: NONBONDED TABLE R-SQUARED SPACING: 0.0625
Info: NONBONDED TABLE SIZE: 705 POINTS
TCL: Setting parameter alchLambda2 to 0.09999999999999969
Info: NONBONDED TABLE R-SQUARED SPACING: 0.0625
Info: NONBONDED TABLE SIZE: 705 POINTS
TCL: Running for 1500000 steps
ETITLE: TS BOND ANGLE DIHED IMPRP ELECT VDW BOUNDARY MISC KINETIC TOTAL TEMP POTENTIAL TOTALAVG TEMPAVG PRESSURE GPRESSURE VOLUME PRESSAVG GPRESSAVG
ENERGY: 0 2.1930 10.4968 3.5111 0.0000 -10740.5925 1421.4352 0.0000 0.0000 1794.3035 -7508.6528 303.2526 -9302.9563 -7508.6528 303.2526 -306.7659 -212.6264 30593.8935 -306.7659 -212.6264
ENERGY: 300000 0.5434 8.9508 3.6994 0.0000 -10788.2010 1416.8971 0.0000 0.0000 1755.4851 -7602.6251 296.6920 -9358.1102 -7494.1967 299.0081 -469.7939 -457.8550 30344.4101 -202.1054 -142.6234
ENERGY: 600000 0.9632 9.8624 1.6935 0.0000 -10718.1793 1473.4973 0.0000 0.0000 1797.4284 -7434.7345 303.7807 -9232.1629 -7491.2817 299.8886 194.9460 238.6922 30623.6295 -210.1642 -163.9654
ENERGY: 900000 0.3154 9.6095 4.5783 0.0000 -10802.2571 1441.3320 0.0000 0.0000 1750.8297 -7595.5922 295.9052 -9346.4219 -7522.2305 298.6537 -72.0749 -58.3772 30269.9450 -107.3080 -60.8044
ENERGY: 1200000 2.0208 9.0933 4.1626 0.0000 -10789.9604 1462.1323 0.0000 0.0000 1740.1613 -7572.3901 294.1021 -9312.5514 -7517.4965 299.2275 228.1788 205.7095 30231.6059 -86.4815 -32.3286
ENERGY: 1500000 1.9820 9.0266 2.8757 0.0000 -10818.3779 1478.3437 0.0000 0.0000 1848.7167 -7477.4332 312.4489 -9326.1500 -7517.6535 299.8311 245.7823 319.7720 30268.1591 17.3362 68.2756
TCL: Running FEP window  19: Lambda1 0.09999999999999969 Lambda2 0.049999999999999684 [dLambda -0.05 ]
TCL: Setting parameter firsttimestep to 0
TCL: Setting parameter alchLambda to 0.09999999999999969
Info: NONBONDED TABLE R-SQUARED SPACING: 0.0625
Info: NONBONDED TABLE SIZE: 705 POINTS
TCL: Setting parameter alchLambda2 to 0.049999999999999684
Info: NONBONDED TABLE R-SQUARED SPACING: 0.0625
Info: NONBONDED TABLE SIZE: 705 POINTS
TCL: Running for 1500000 steps
ETITLE: TS BOND ANGLE DIHED IMPRP ELECT VDW BOUNDARY MISC KINETIC TOTAL TEMP POTENTIAL TOTALAVG TEMPAVG PRESSURE GPRESSURE VOLUME PRESSAVG GPRESSAVG
ENERGY: 0 1.9820 9.0266 2.8757 0.0000 -10818.3772 1478.5059 0.0000 0.0000 1847.8465 -7478.1406 312.3018 -9325.9870 -7478.1406 312.3018 218.0366 315.6039 30268.1591 218.0366 315.6039
ENERGY: 300000 2.5668 8.3206 7.2830 0.0000 -10655.2040 1334.8040 0.0000 0.0000 1704.6046 -7597.6249 288.0927 -9302.2296 -7516.9276 300.5369 -1178.3727 -1127.1166 30659.4835 -454.1135 -383.2604
ENERGY: 600000 2.1556 13.6971 5.0269 0.0000 -10889.7283 1476.8147 0.0000 0.0000 1779.2606 -7612.7734 300.7102 -9392.0340 -7521.8171 301.8439 -184.4397 -63.4465 30334.6092 -206.0058 -130.0857
ENERGY: 900000 2.2356 9.1790 3.5080 0.0000 -10716.5148 1457.6026 0.0000 0.0000 1736.0624 -7507.9272 293.4093 -9243.9896 -7518.2288 299.8271 317.8469 335.0449 30400.4498 -145.1647 -70.4159
ENERGY: 1200000 1.3840 13.3290 3.4963 0.0000 -10582.6087 1392.5124 0.0000 0.0000 1811.7012 -7360.1858 306.1930 -9171.8870 -7498.1283 301.0911 -117.5846 -46.6728 30494.3079 -29.5266 41.0506
ENERGY: 1500000 2.3784 10.1953 2.1434 0.0000 -10772.5606 1486.0942 0.0000 0.0000 1775.7874 -7495.9618 300.1232 -9271.7493 -7497.2726 300.5689 470.7229 569.6602 30072.2183 -28.9345 40.8743
TCL: Running FEP window  20: Lambda1 0.049999999999999684 Lambda2 0.0    [dLambda -0.049999999999999684]
TCL: Setting parameter firsttimestep to 0
TCL: Setting parameter alchLambda to 0.049999999999999684
Info: NONBONDED TABLE R-SQUARED SPACING: 0.0625
Info: NONBONDED TABLE SIZE: 705 POINTS
TCL: Setting parameter alchLambda2 to 0.0
Info: NONBONDED TABLE R-SQUARED SPACING: 0.0625
Info: NONBONDED TABLE SIZE: 705 POINTS
TCL: Running for 1500000 steps
ETITLE: TS BOND ANGLE DIHED IMPRP ELECT VDW BOUNDARY MISC KINETIC TOTAL TEMP POTENTIAL TOTALAVG TEMPAVG PRESSURE GPRESSURE VOLUME PRESSAVG GPRESSAVG
ENERGY: 0 2.3784 10.1953 2.1434 0.0000 -10772.5601 1485.6986 0.0000 0.0000 1774.9336 -7497.2108 299.9789 -9272.1444 -7497.2108 299.9789 483.7746 564.6386 30072.2183 483.7746 564.6386
ENERGY: 300000 4.4033 9.8625 2.5199 0.0000 -10698.3029 1362.3273 0.0000 0.0000 1737.5714 -7581.6185 293.6644 -9319.1899 -7504.7586 299.3551 -1191.8137 -1128.7572 31117.7363 -234.7961 -156.2839
ENERGY: 600000 0.2783 9.9874 3.8503 0.0000 -10714.7504 1367.5889 0.0000 0.0000 1729.2921 -7603.7533 292.2651 -9333.0454 -7517.3542 297.1438 -1019.5684 -943.3867 30614.5901 -211.5335 -145.2242
ENERGY: 900000 1.7276 12.8313 2.3240 0.0000 -10769.7396 1422.6720 0.0000 0.0000 1783.6189 -7546.5657 301.4468 -9330.1846 -7505.2944 299.2926 -167.5067 -192.2125 30580.2205 -183.7500 -125.5123
ENERGY: 1200000 1.2021 9.7658 2.8488 0.0000 -10782.0365 1461.8282 0.0000 0.0000 1789.5969 -7516.7946 302.4571 -9306.3915 -7509.0894 299.3074 280.4584 284.4882 30124.5930 -207.9746 -153.5618
ENERGY: 1500000 3.2356 9.1720 3.7392 0.0000 -10813.9091 1475.4341 0.0000 0.0000 1792.2873 -7530.0410 302.9118 -9322.3282 -7503.6988 300.0413 125.5624 144.7734 30245.1676 -157.9244 -100.2169
TCL: Exiting due to exit command.
