Info: SIMULATION PARAMETERS:
Info: TIMESTEP               2
Info: NUMBER OF STEPS        0
Info: STEPS PER CYCLE        10
Info: PERIODIC CELL BASIS 1  30.4219 0 0
Info: PERIODIC CELL BASIS 2  0 30.8568 0
Info: PERIODIC CELL BASIS 3  0 0 32.535
Info: PERIODIC CELL CENTER   0 0 0
Info: WRAPPING WATERS AROUND PERIODIC BOUNDARIES ON OUTPUT.
Info: WRAPPING ALL CLUSTERS AROUND PERIODIC BOUNDARIES ON OUTPUT.
Info: FIRST LDB TIMESTEP     50
Info: LAST LDB TIMESTEP     -1
Info: HOM BACKGROUND SCALING 1
Info: PME BACKGROUND SCALING 1
Info: MIN ATOMS PER PATCH    40
Info: EMPTY PATCH LOAD       40 ATOMS
Info: VELOCITY FILE          mobley_6338073_equil.vel
Info: CENTER OF MASS MOVING INITIALLY? NO
Info: DIELECTRIC             1
Info: EXCLUDE                SCALED ONE-FOUR
Info: 1-4 ELECTROSTATICS SCALED BY 0.833333
Info: MODIFIED 1-4 VDW PARAMETERS WILL BE USED
Info: DCD FILENAME           mobley_6338073_prod.dcd
Info: DCD FREQUENCY          100000
Info: DCD FIRST STEP         100000
Info: DCD FILE WILL CONTAIN UNIT CELL DATA
Info: XST FILENAME           mobley_6338073_prod.xst
Info: XST FREQUENCY          100000
Info: NO VELOCITY DCD OUTPUT
Info: NO FORCE DCD OUTPUT
Info: OUTPUT FILENAME        mobley_6338073_prod
Info: BINARY OUTPUT FILES WILL BE USED
Info: RESTART FILENAME       mobley_6338073_prod.restart
Info: RESTART FREQUENCY      100000
Info: BINARY RESTART FILES WILL BE USED
Info: CUTOFF                 9
Info: PAIRLIST DISTANCE      11
Info: PAIRLIST SHRINK RATE   0.01
Info: PAIRLIST GROW RATE     0.01
Info: PAIRLIST TRIGGER       0.3
Info: PAIRLISTS PER CYCLE    2
Info: PAIRLISTS ENABLED
Info: MARGIN                 2
Info: HYDROGEN GROUP CUTOFF  2.5
Info: PATCH DIMENSION        15.5
Info: ENERGY OUTPUT STEPS    100000
Info: ENERGY EVALUATION STEPS    100000
Info: OUTPUT ENERGY PRECISION 4
Info: CROSSTERM ENERGY INCLUDED IN DIHEDRAL
Info: TIMING OUTPUT STEPS    1000000
Info: PRESSURE OUTPUT STEPS  100000
Info: ALCHEMICAL FEP ON
Info: FEP CURRENT LAMBDA VALUE     0
Info: FEP COMPARISON LAMBDA VALUE  0.05
Info: FEP INTRA-ALCHEMICAL NON-BONDED INTERACTIONS WILL BE RETAINED
Info: FEP INTRA-ALCHEMICAL BONDED INTERACTIONS WILL BE RETAINED
Info: FEP VDW SHIFTING COEFFICIENT 5
Info: FEP ELEC. ACTIVE FOR ANNIHILATED PARTICLES BETWEEN LAMBDA = 0 AND LAMBDA = 0.5
Info: FEP ELEC. ACTIVE FOR EXNIHILATED PARTICLES BETWEEN LAMBDA = 0.5 AND LAMBDA = 1
Info: FEP VDW ACTIVE FOR ANNIHILATED PARTICLES BETWEEN LAMBDA = 0 AND LAMBDA = 1
Info: FEP VDW ACTIVE FOR EXNIHILATED PARTICLES BETWEEN LAMBDA = 0 AND LAMBDA = 1
Info: FEP BOND ACTIVE FOR ANNIHILATED PARTICLES BETWEEN LAMBDA = 1 AND LAMBDA = 1
Info: FEP BOND ACTIVE FOR EXNIHILATED PARTICLES BETWEEN LAMBDA = 0 AND LAMBDA = 0
Info: LANGEVIN DYNAMICS ACTIVE
Info: LANGEVIN TEMPERATURE   300
Info: LANGEVIN USING BBK INTEGRATOR
Info: LANGEVIN DAMPING COEFFICIENT IS 1 INVERSE PS
Info: LANGEVIN DYNAMICS APPLIED TO HYDROGENS
Info: LANGEVIN PISTON PRESSURE CONTROL ACTIVE
Info:        TARGET PRESSURE IS 1.01325 BAR
Info:     OSCILLATION PERIOD IS 50 FS
Info:             DECAY TIME IS 25 FS
Info:     PISTON TEMPERATURE IS 300 K
Info:       PRESSURE CONTROL IS GROUP-BASED
Info:    INITIAL STRAIN RATE IS 0.000415575 0.000415575 0.000415575
Info:       CELL FLUCTUATION IS ISOTROPIC
Info: PARTICLE MESH EWALD (PME) ACTIVE
Info: PME TOLERANCE               1e-06
Info: PME EWALD COEFFICIENT       0.348832
Info: PME INTERPOLATION ORDER     4
Info: PME GRID DIMENSIONS         32 32 36
Info: PME MAXIMUM GRID SPACING    1
Info: PME CALCULATION WILL BE PERFORMED ON GPU
Info: FULL ELECTROSTATIC EVALUATION FREQUENCY      2
Info: USING VERLET I (r-RESPA) MTS SCHEME.
Info: C1 SPLITTING OF LONG RANGE ELECTROSTATICS
Info: PLACING ATOMS IN PATCHES BY HYDROGEN GROUPS
Info: RIGID BONDS TO HYDROGEN : ALL
Info:         ERROR TOLERANCE : 1e-08
Info:          MAX ITERATIONS : 100
Info: RIGID WATER USING SETTLE ALGORITHM
Info: RANDOM NUMBER SEED     1744001135
Info: USE HYDROGEN BONDS?    NO
Info: Using AMBER format force field!
Info: AMBER PARM FILE        mobley_6338073.prmtop
Info: COORDINATE PDB         mobley_6338073.pdb
Info: Exclusions will be read from PARM file!
Info: SCNB (VDW SCALING)     2
Info: USING ARITHMETIC MEAN TO COMBINE L-J SIGMA PARAMETERS
Info: BINARY COORDINATES     mobley_6338073_equil.coor
Info: SUMMARY OF PARAMETERS:
Info: 11 BONDS
Info: 16 ANGLES
Info:   16 HARMONIC
Info:   0 COSINE-BASED
Info: 8 DIHEDRAL
Info: 0 IMPROPER
Info: 0 CROSSTERM
Info: 0 VDW
Info: 45 VDW_PAIRS
Info: 0 NBTHOLE_PAIRS
Info: To read alchdata from file: mobley_6338073.pdb
Info: To read alchflag data from column: 5
Info: STRUCTURE SUMMARY:
Info: 2948 ATOMS
Info: 2948 BONDS
Info: 61 ANGLES
Info: 78 DIHEDRALS
Info: 0 IMPROPERS
Info: 0 CROSSTERMS
Info: 3079 EXCLUSIONS
Info: 2932 RIGID BONDS
Info: ALCH: 0 ATOMS TO DISAPPEAR IN FINAL STATE
Info: ALCH: 35 ATOMS TO APPEAR IN FINAL STATE
Info: 5912 DEGREES OF FREEDOM
Info: 987 HYDROGEN GROUPS
Info: 4 ATOMS IN LARGEST HYDROGEN GROUP
Info: 987 MIGRATION GROUPS
Info: 4 ATOMS IN LARGEST MIGRATION GROUP
Info: TOTAL MASS = 17734.9 amu
Info: TOTAL CHARGE = 4.09782e-08 e
Info: MASS DENSITY = 0.96427 g/cm^3
Info: ATOM DENSITY = 0.0965247 atoms/A^3
Info: ADDED 0 IMPLICIT EXCLUSIONS
Info: NONBONDED TABLE R-SQUARED SPACING: 0.0625
Info: NONBONDED TABLE SIZE: 705 POINTS
Info: REMOVING COM VELOCITY -0.0322748 -0.0599344 -0.0485345
Info: Use 3D box decompostion in PME FFT.
Info: Updated CUDA force table with 4096 elements.
Info: Updated CUDA LJ table with 9 x 9 elements.
Info: Found 38 unique exclusion lists needing 152 bytes
TCL: Running for 1500000 steps
ETITLE: TS BOND ANGLE DIHED IMPRP ELECT VDW BOUNDARY MISC KINETIC TOTAL TEMP POTENTIAL TOTALAVG TEMPAVG PRESSURE GPRESSURE VOLUME PRESSAVG GPRESSAVG
ENERGY: 0 4.3689 15.5283 9.0324 0.0000 -10974.7612 1379.8347 0.0000 0.0000 1710.0995 -7855.8975 291.1235 -9565.9970 -7855.8975 291.1235 -610.6064 -529.4304 30541.4146 -610.6064 -529.4304
ENERGY: 300000 5.5611 18.7849 4.6066 0.0000 -11022.1950 1363.3329 0.0000 0.0000 1724.3300 -7905.5795 293.5461 -9629.9094 -7856.5047 296.1776 -1023.7879 -969.3859 30267.1140 -337.9342 -292.3707
ENERGY: 600000 5.7886 27.2987 1.6033 0.0000 -11082.5102 1407.0419 0.0000 0.0000 1782.0964 -7858.6811 303.3801 -9640.7776 -7854.7356 297.7567 -239.1959 -154.1320 29713.3267 -218.0874 -171.9133
ENERGY: 900000 4.0611 18.8923 6.0006 0.0000 -11156.4902 1509.8193 0.0000 0.0000 1758.6245 -7859.0924 299.3843 -9617.7170 -7853.8598 298.8261 711.6361 733.5254 29656.0129 -22.7107 24.9277
ENERGY: 1200000 8.5117 15.1465 6.7528 0.0000 -11034.8542 1440.4632 0.0000 0.0000 1775.7022 -7788.2777 302.2916 -9563.9799 -7850.8557 299.6470 -143.4547 -26.9906 30296.6347 -55.1494 8.8609
ENERGY: 1500000 4.4415 18.3111 7.9871 0.0000 -11063.8958 1408.7281 0.0000 0.0000 1840.2908 -7784.1371 313.2870 -9624.4280 -7838.0689 300.9733 -284.8279 -229.4568 29916.0567 -85.0265 -24.6737
TCL: Running FEP window   2: Lambda1 0.05   Lambda2 0.1    [dLambda 0.05  ]
TCL: Setting parameter firsttimestep to 0
TCL: Setting parameter alchLambda to 0.05
Info: NONBONDED TABLE R-SQUARED SPACING: 0.0625
Info: NONBONDED TABLE SIZE: 705 POINTS
TCL: Setting parameter alchLambda2 to 0.1
Info: NONBONDED TABLE R-SQUARED SPACING: 0.0625
Info: NONBONDED TABLE SIZE: 705 POINTS
TCL: Running for 1500000 steps
ETITLE: TS BOND ANGLE DIHED IMPRP ELECT VDW BOUNDARY MISC KINETIC TOTAL TEMP POTENTIAL TOTALAVG TEMPAVG PRESSURE GPRESSURE VOLUME PRESSAVG GPRESSAVG
ENERGY: 0 4.4415 18.3111 7.9871 0.0000 -11063.8944 1413.0357 0.0000 0.0000 1839.4135 -7780.7054 313.1377 -9620.1189 -7780.7054 313.1377 -299.0957 -213.5222 29916.0567 -299.0957 -213.5222
ENERGY: 300000 12.2839 20.5399 4.8713 0.0000 -10904.6583 1342.3415 0.0000 0.0000 1795.0514 -7729.5703 305.5856 -9524.6217 -7777.0185 305.7591 -650.8910 -627.3019 29703.0447 -591.8735 -530.9411
ENERGY: 600000 8.8765 20.7606 4.9222 0.0000 -11210.5483 1491.6674 0.0000 0.0000 1758.7580 -7925.5637 299.4071 -9684.3216 -7804.9875 303.2925 128.3358 184.7247 29736.0477 -354.2572 -300.7623
ENERGY: 900000 9.5837 17.3435 9.7129 0.0000 -11105.2202 1484.1786 0.0000 0.0000 1744.8359 -7839.5657 297.0370 -9584.4016 -7807.6682 301.8983 335.9802 432.5252 30031.1628 -236.2323 -172.7540
ENERGY: 1200000 7.4613 25.7253 6.4036 0.0000 -10992.9199 1399.2364 0.0000 0.0000 1735.7377 -7818.3555 295.4881 -9554.0932 -7811.1444 300.6292 -94.5522 -22.4218 29970.6617 -214.2012 -147.9495
ENERGY: 1500000 8.0651 24.7064 5.4999 0.0000 -11169.5134 1435.4609 0.0000 0.0000 1826.6090 -7869.1722 310.9579 -9695.7812 -7819.6199 301.5012 -300.1902 -180.8560 30144.1409 -156.1556 -92.4401
TCL: Running FEP window   3: Lambda1 0.1    Lambda2 0.15000000000000002 [dLambda 0.05000000000000002]
TCL: Setting parameter firsttimestep to 0
TCL: Setting parameter alchLambda to 0.1
Info: NONBONDED TABLE R-SQUARED SPACING: 0.0625
Info: NONBONDED TABLE SIZE: 705 POINTS
TCL: Setting parameter alchLambda2 to 0.15000000000000002
Info: NONBONDED TABLE R-SQUARED SPACING: 0.0625
Info: NONBONDED TABLE SIZE: 705 POINTS
TCL: Running for 1500000 steps
ETITLE: TS BOND ANGLE DIHED IMPRP ELECT VDW BOUNDARY MISC KINETIC TOTAL TEMP POTENTIAL TOTALAVG TEMPAVG PRESSURE GPRESSURE VOLUME PRESSAVG GPRESSAVG
ENERGY: 0 8.0651 24.7064 5.4999 0.0000 -11169.5145 1440.2090 0.0000 0.0000 1825.7157 -7865.3185 310.8058 -9691.0342 -7865.3185 310.8058 -238.1411 -161.8707 30144.1409 -238.1411 -161.8707
ENERGY: 300000 5.0085 20.0973 8.2337 0.0000 -11051.4534 1490.9740 0.0000 0.0000 1716.6865 -7810.4533 292.2449 -9527.1399 -7801.3603 304.5686 417.1854 460.0583 29903.8032 -50.8165 18.3373
ENERGY: 600000 5.1491 20.1371 3.0455 0.0000 -10991.8406 1425.6275 0.0000 0.0000 1782.7866 -7755.0947 303.4976 -9537.8813 -7798.0561 303.6291 -161.2014 -69.4986 30263.5002 -77.8566 2.9631
ENERGY: 900000 8.9756 21.3237 7.6354 0.0000 -11121.0602 1481.9692 0.0000 0.0000 1791.8615 -7809.2949 305.0425 -9601.1564 -7801.5498 303.8106 72.5441 108.5554 30339.7827 51.3898 126.3571
ENERGY: 1200000 8.4533 25.2240 2.9020 0.0000 -11049.1064 1435.4928 0.0000 0.0000 1733.0156 -7844.0186 295.0247 -9577.0342 -7807.0930 302.7382 -114.0768 -1.0705 30086.6772 23.0072 92.2719
ENERGY: 1500000 4.9551 22.5461 9.9611 0.0000 -10938.9957 1367.4577 0.0000 0.0000 1702.2619 -7831.8138 289.7893 -9534.0758 -7810.4350 301.4710 -630.1044 -554.5605 29882.5937 -128.5501 -57.5454
TCL: Running FEP window   4: Lambda1 0.15000000000000002 Lambda2 0.2    [dLambda 0.04999999999999999]
TCL: Setting parameter firsttimestep to 0
TCL: Setting parameter alchLambda to 0.15000000000000002
Info: NONBONDED TABLE R-SQUARED SPACING: 0.0625
Info: NONBONDED TABLE SIZE: 705 POINTS
TCL: Setting parameter alchLambda2 to 0.2
Info: NONBONDED TABLE R-SQUARED SPACING: 0.0625
Info: NONBONDED TABLE SIZE: 705 POINTS
TCL: Running for 1500000 steps
ETITLE: TS BOND ANGLE DIHED IMPRP ELECT VDW BOUNDARY MISC KINETIC TOTAL TEMP POTENTIAL TOTALAVG TEMPAVG PRESSURE GPRESSURE VOLUME PRESSAVG GPRESSAVG
ENERGY: 0 4.9551 22.5461 9.9611 0.0000 -10938.9964 1370.4808 0.0000 0.0000 1701.3755 -7829.6778 289.6384 -9531.0532 -7829.6778 289.6384 -618.4284 -537.8381 29882.5937 -618.4284 -537.8381
ENERGY: 300000 7.7186 16.3120 5.8940 0.0000 -11061.9389 1424.4961 0.0000 0.0000 1790.0607 -7817.4575 304.7360 -9607.5182 -7850.4281 299.2641 -126.5887 -49.6679 30046.7975 -537.0559 -463.9674
ENERGY: 600000 7.7451 27.5736 4.9907 0.0000 -11023.7966 1452.7488 0.0000 0.0000 1785.0230 -7745.7155 303.8784 -9530.7385 -7827.0516 298.6221 -103.3139 -130.2207 30537.0975 -339.7527 -292.2060
ENERGY: 900000 9.6715 18.5479 4.3639 0.0000 -11202.0435 1541.2525 0.0000 0.0000 1756.7969 -7871.4109 299.0732 -9628.2078 -7824.2099 298.7753 872.8555 939.8812 29411.0586 -115.0256 -63.8769
ENERGY: 1200000 9.4488 23.0218 8.1652 0.0000 -11025.2578 1364.6682 0.0000 0.0000 1742.2434 -7877.7104 296.5957 -9619.9538 -7829.8940 298.6598 -724.6474 -669.8702 30209.9115 -157.9802 -107.9662
ENERGY: 1500000 6.4135 19.5271 7.8904 0.0000 -11144.1826 1470.1476 0.0000 0.0000 1755.6149 -7884.5892 298.8720 -9640.2040 -7839.7669 298.4610 39.5218 97.7545 29911.5130 -119.0562 -67.2103
TCL: Running FEP window   5: Lambda1 0.2    Lambda2 0.25   [dLambda 0.04999999999999999]
TCL: Setting parameter firsttimestep to 0
TCL: Setting parameter alchLambda to 0.2
Info: NONBONDED TABLE R-SQUARED SPACING: 0.0625
Info: NONBONDED TABLE SIZE: 705 POINTS
TCL: Setting parameter alchLambda2 to 0.25
Info: NONBONDED TABLE R-SQUARED SPACING: 0.0625
Info: NONBONDED TABLE SIZE: 705 POINTS
TCL: Running for 1500000 steps
ETITLE: TS BOND ANGLE DIHED IMPRP ELECT VDW BOUNDARY MISC KINETIC TOTAL TEMP POTENTIAL TOTALAVG TEMPAVG PRESSURE GPRESSURE VOLUME PRESSAVG GPRESSAVG
ENERGY: 0 6.4136 19.5271 7.8904 0.0000 -11144.1815 1471.1973 0.0000 0.0000 1754.7524 -7884.4007 298.7252 -9639.1531 -7884.4007 298.7252 33.2341 108.5872 29911.5130 33.2341 108.5872
ENERGY: 300000 7.7932 26.3908 7.8056 0.0000 -11038.2363 1424.8455 0.0000 0.0000 1746.8609 -7824.5402 297.3817 -9571.4011 -7828.8082 299.1754 -168.8012 -118.9809 30348.3276 -39.7466 6.1259
ENERGY: 600000 9.3961 21.4971 2.3975 0.0000 -10965.8678 1383.0181 0.0000 0.0000 1745.2391 -7804.3199 297.1056 -9549.5590 -7822.2155 299.3733 -389.4046 -382.1748 30515.1898 -181.1401 -125.5240
ENERGY: 900000 4.6930 21.0689 4.1407 0.0000 -10950.4291 1345.0806 0.0000 0.0000 1751.1930 -7824.2529 298.1192 -9575.4459 -7826.5374 298.9866 -1021.1073 -983.8955 30551.9033 -290.0149 -244.5199
ENERGY: 1200000 3.8686 17.1432 10.1124 0.0000 -10939.0458 1388.1667 0.0000 0.0000 1771.9122 -7747.8426 301.6464 -9519.7548 -7808.8561 300.4000 -398.2953 -331.2230 30166.1055 -238.3785 -194.7226
ENERGY: 1500000 4.1560 19.0132 9.8911 0.0000 -10893.7059 1324.0910 0.0000 0.0000 1806.9241 -7729.6306 307.6067 -9536.5547 -7793.2267 301.1815 -946.8618 -845.9146 30236.7109 -266.4069 -214.7545
TCL: Running FEP window   6: Lambda1 0.25   Lambda2 0.3    [dLambda 0.04999999999999999]
TCL: Setting parameter firsttimestep to 0
TCL: Setting parameter alchLambda to 0.25
Info: NONBONDED TABLE R-SQUARED SPACING: 0.0625
Info: NONBONDED TABLE SIZE: 705 POINTS
TCL: Setting parameter alchLambda2 to 0.3
Info: NONBONDED TABLE R-SQUARED SPACING: 0.0625
Info: NONBONDED TABLE SIZE: 705 POINTS
TCL: Running for 1500000 steps
ETITLE: TS BOND ANGLE DIHED IMPRP ELECT VDW BOUNDARY MISC KINETIC TOTAL TEMP POTENTIAL TOTALAVG TEMPAVG PRESSURE GPRESSURE VOLUME PRESSAVG GPRESSAVG
ENERGY: 0 4.1560 19.0132 9.8911 0.0000 -10893.7061 1324.3006 0.0000 0.0000 1806.0490 -7730.2962 307.4578 -9536.3452 -7730.2962 307.4578 -919.6507 -839.0795 30236.7109 -919.6507 -839.0795
ENERGY: 300000 5.3256 24.1423 4.8542 0.0000 -11067.0696 1451.2680 0.0000 0.0000 1750.4367 -7831.0428 297.9905 -9581.4795 -7793.0782 303.8705 165.5862 166.7743 30000.6894 -85.9852 -33.4921
ENERGY: 600000 11.2782 25.1646 5.8847 0.0000 -11019.2918 1430.1600 0.0000 0.0000 1747.2925 -7799.5118 297.4552 -9546.8043 -7799.8310 301.7549 -169.5150 45.9774 30234.0923 -146.6738 -71.0999
ENERGY: 900000 3.0076 28.5302 5.0454 0.0000 -10909.0594 1325.8530 0.0000 0.0000 1811.7176 -7734.9056 308.4228 -9546.6232 -7792.9924 302.2505 -741.4353 -689.6170 30042.7014 -208.5737 -133.1448
ENERGY: 1200000 12.5535 16.8862 3.6876 0.0000 -11265.4277 1604.4756 0.0000 0.0000 1831.7820 -7796.0429 311.8385 -9627.8249 -7794.7556 303.1473 1196.1577 1230.9218 30230.0759 -123.9113 -56.4750
ENERGY: 1500000 11.3029 19.2255 6.8012 0.0000 -10992.6277 1438.4676 0.0000 0.0000 1784.2057 -7732.6248 303.7392 -9516.8306 -7796.7782 303.0986 311.4162 354.6443 30348.1076 -110.7743 -52.1912
TCL: Running FEP window   7: Lambda1 0.3    Lambda2 0.35   [dLambda 0.04999999999999999]
TCL: Setting parameter firsttimestep to 0
TCL: Setting parameter alchLambda to 0.3
Info: NONBONDED TABLE R-SQUARED SPACING: 0.0625
Info: NONBONDED TABLE SIZE: 705 POINTS
TCL: Setting parameter alchLambda2 to 0.35
Info: NONBONDED TABLE R-SQUARED SPACING: 0.0625
Info: NONBONDED TABLE SIZE: 705 POINTS
TCL: Running for 1500000 steps
ETITLE: TS BOND ANGLE DIHED IMPRP ELECT VDW BOUNDARY MISC KINETIC TOTAL TEMP POTENTIAL TOTALAVG TEMPAVG PRESSURE GPRESSURE VOLUME PRESSAVG GPRESSAVG
ENERGY: 0 11.3029 19.2255 6.8012 0.0000 -10992.6269 1438.9438 0.0000 0.0000 1783.3244 -7733.0290 303.5892 -9516.3535 -7733.0290 303.5892 299.8398 367.6354 30348.1076 299.8398 367.6354
ENERGY: 300000 4.1029 16.5198 5.4912 0.0000 -11060.0615 1408.0931 0.0000 0.0000 1730.3892 -7895.4653 294.5776 -9625.8544 -7825.7754 300.3626 -334.4390 -239.9878 29953.2562 -119.6927 -67.3585
ENERGY: 600000 4.6954 26.4731 4.2019 0.0000 -10986.6373 1350.0047 0.0000 0.0000 1776.5306 -7824.7315 302.4326 -9601.2621 -7814.4963 300.9364 -636.7114 -610.1268 30128.1705 -261.9761 -193.6512
ENERGY: 900000 9.9574 24.1173 9.7588 0.0000 -11181.5397 1486.1649 0.0000 0.0000 1787.2720 -7864.2693 304.2612 -9651.5413 -7836.9880 300.3729 418.0703 422.9323 29877.7338 -239.6699 -174.9072
ENERGY: 1200000 11.2735 16.0012 6.2303 0.0000 -11056.3223 1439.4267 0.0000 0.0000 1772.3053 -7811.0853 301.7133 -9583.3906 -7830.2014 300.4780 65.3626 89.6087 30221.6072 -186.1068 -128.3435
ENERGY: 1500000 8.6703 23.9834 5.4205 0.0000 -11079.8616 1516.6235 0.0000 0.0000 1790.4809 -7734.6830 304.8075 -9525.1639 -7820.1460 300.5430 1023.7794 1090.9524 29841.8232 -59.0086 1.4402
TCL: Running FEP window   8: Lambda1 0.35   Lambda2 0.39999999999999997 [dLambda 0.04999999999999999]
TCL: Setting parameter firsttimestep to 0
TCL: Setting parameter alchLambda to 0.35
Info: NONBONDED TABLE R-SQUARED SPACING: 0.0625
Info: NONBONDED TABLE SIZE: 705 POINTS
TCL: Setting parameter alchLambda2 to 0.39999999999999997
Info: NONBONDED TABLE R-SQUARED SPACING: 0.0625
Info: NONBONDED TABLE SIZE: 705 POINTS
TCL: Running for 1500000 steps
ETITLE: TS BOND ANGLE DIHED IMPRP ELECT VDW BOUNDARY MISC KINETIC TOTAL TEMP POTENTIAL TOTALAVG TEMPAVG PRESSURE GPRESSURE VOLUME PRESSAVG GPRESSAVG
ENERGY: 0 8.6703 23.9834 5.4205 0.0000 -11079.8624 1517.4644 0.0000 0.0000 1789.6065 -7734.7173 304.6587 -9524.3238 -7734.7173 304.6587 1021.7177 1106.7457 29841.8232 1021.7177 1106.7457
ENERGY: 300000 7.0881 28.2458 9.4657 0.0000 -10949.6587 1314.0292 0.0000 0.0000 1813.2609 -7777.5690 308.6855 -9590.8299 -7824.0232 301.2781 -926.2033 -933.8939 30447.3057 154.6995 217.9076
ENERGY: 600000 9.7035 28.3568 8.6093 0.0000 -11105.8829 1512.7582 0.0000 0.0000 1780.9937 -7765.4613 303.1924 -9546.4550 -7783.4217 301.9140 902.0798 932.4894 30115.2563 130.2947 192.4120
ENERGY: 900000 7.3108 27.7062 3.0641 0.0000 -11047.5201 1449.9144 0.0000 0.0000 1809.8361 -7749.6885 308.1025 -9559.5246 -7787.3143 302.1370 170.6087 274.1817 30259.8817 61.7512 134.4001
ENERGY: 1200000 6.8993 26.2714 5.3614 0.0000 -11171.3231 1519.2158 0.0000 0.0000 1773.3625 -7840.2128 301.8933 -9613.5753 -7799.0083 301.3473 290.3676 422.0940 30379.6833 31.9170 102.7417
ENERGY: 1500000 7.6344 23.6426 5.4294 0.0000 -10948.9085 1400.4191 0.0000 0.0000 1766.6265 -7745.1565 300.7466 -9511.7830 -7792.4437 301.8029 -119.6596 -62.3228 30279.5868 76.7689 148.1523
TCL: Running FEP window   9: Lambda1 0.39999999999999997 Lambda2 0.44999999999999996 [dLambda 0.04999999999999999]
TCL: Setting parameter firsttimestep to 0
TCL: Setting parameter alchLambda to 0.39999999999999997
Info: NONBONDED TABLE R-SQUARED SPACING: 0.0625
Info: NONBONDED TABLE SIZE: 705 POINTS
TCL: Setting parameter alchLambda2 to 0.44999999999999996
Info: NONBONDED TABLE R-SQUARED SPACING: 0.0625
Info: NONBONDED TABLE SIZE: 705 POINTS
TCL: Running for 1500000 steps
ETITLE: TS BOND ANGLE DIHED IMPRP ELECT VDW BOUNDARY MISC KINETIC TOTAL TEMP POTENTIAL TOTALAVG TEMPAVG PRESSURE GPRESSURE VOLUME PRESSAVG GPRESSAVG
ENERGY: 0 7.6344 23.6426 5.4294 0.0000 -10948.9083 1402.8117 0.0000 0.0000 1765.7510 -7743.6393 300.5975 -9509.3903 -7743.6393 300.5975 -126.8194 -36.2055 30279.5868 -126.8194 -36.2055
ENERGY: 300000 3.3888 23.4995 8.1063 0.0000 -10980.0120 1371.8827 0.0000 0.0000 1721.2720 -7851.8627 293.0255 -9573.1347 -7787.5993 302.9988 -655.2508 -587.4163 30759.9097 -104.5208 -47.8957
ENERGY: 600000 7.6265 25.9895 9.1225 0.0000 -11000.1664 1415.2900 0.0000 0.0000 1746.5291 -7795.6087 297.3253 -9542.1379 -7807.1790 301.6927 -144.2498 -22.2400 30082.6808 7.3484 66.7744
ENERGY: 900000 8.3087 25.7029 4.2947 0.0000 -10976.8333 1439.4362 0.0000 0.0000 1757.0072 -7742.0835 299.1090 -9499.0908 -7786.2023 302.6493 341.9419 384.7011 30156.4363 -21.7294 33.3658
ENERGY: 1200000 6.2629 19.3220 4.6603 0.0000 -11022.4042 1406.5307 0.0000 0.0000 1734.5599 -7851.0683 295.2876 -9585.6283 -7793.6572 301.9227 -239.5945 -212.1949 30279.6430 -56.6261 3.1283
ENERGY: 1500000 6.8149 28.0121 4.8003 0.0000 -11088.2501 1443.3645 0.0000 0.0000 1714.0712 -7891.1870 291.7997 -9605.2582 -7797.2896 300.7791 -422.2945 -346.8229 30573.1108 -72.1688 -8.3048
TCL: Running FEP window  10: Lambda1 0.44999999999999996 Lambda2 0.49999999999999994 [dLambda 0.04999999999999999]
TCL: Setting parameter firsttimestep to 0
TCL: Setting parameter alchLambda to 0.44999999999999996
Info: NONBONDED TABLE R-SQUARED SPACING: 0.0625
Info: NONBONDED TABLE SIZE: 705 POINTS
TCL: Setting parameter alchLambda2 to 0.49999999999999994
Info: NONBONDED TABLE R-SQUARED SPACING: 0.0625
Info: NONBONDED TABLE SIZE: 705 POINTS
TCL: Running for 1500000 steps
ETITLE: TS BOND ANGLE DIHED IMPRP ELECT VDW BOUNDARY MISC KINETIC TOTAL TEMP POTENTIAL TOTALAVG TEMPAVG PRESSURE GPRESSURE VOLUME PRESSAVG GPRESSAVG
ENERGY: 0 6.8149 28.0121 4.8003 0.0000 -11088.2471 1444.1954 0.0000 0.0000 1713.1890 -7891.2352 291.6495 -9604.4243 -7891.2352 291.6495 -415.0866 -333.4111 30573.1108 -415.0866 -333.4111
ENERGY: 300000 4.8206 17.1823 5.7147 0.0000 -10945.1699 1377.7428 0.0000 0.0000 1729.7055 -7810.0041 294.4612 -9539.7096 -7867.2379 294.9421 -143.2585 -17.1117 30133.4541 -101.0519 -38.2405
ENERGY: 600000 6.5985 22.2639 6.3412 0.0000 -11107.6511 1458.5185 0.0000 0.0000 1701.6745 -7912.2544 289.6893 -9613.9289 -7854.4266 295.5424 -33.4605 -10.8556 30370.9984 22.1466 67.4078
ENERGY: 900000 4.9861 18.2825 6.7169 0.0000 -11090.9361 1443.9870 0.0000 0.0000 1709.6162 -7907.3474 291.0413 -9616.9636 -7846.2650 295.5194 -73.2947 -89.6811 30029.5818 42.6865 81.5434
ENERGY: 1200000 5.8548 22.0078 8.9064 0.0000 -11029.2221 1396.6913 0.0000 0.0000 1790.6746 -7805.0872 304.8405 -9595.7618 -7838.7121 297.0386 -140.8867 -53.2662 30239.7011 -3.4094 39.6397
ENERGY: 1500000 9.7175 24.7963 6.9399 0.0000 -10984.3171 1383.4772 0.0000 0.0000 1785.1352 -7774.2510 303.8975 -9559.3862 -7832.8220 297.5493 -307.3143 -263.7717 30272.4801 -92.5872 -52.5500
TCL: Running FEP window  11: Lambda1 0.49999999999999994 Lambda2 0.5499999999999999 [dLambda 0.04999999999999999]
TCL: Setting parameter firsttimestep to 0
TCL: Setting parameter alchLambda to 0.49999999999999994
Info: NONBONDED TABLE R-SQUARED SPACING: 0.0625
Info: NONBONDED TABLE SIZE: 705 POINTS
TCL: Setting parameter alchLambda2 to 0.5499999999999999
Info: NONBONDED TABLE R-SQUARED SPACING: 0.0625
Info: NONBONDED TABLE SIZE: 705 POINTS
TCL: Running for 1500000 steps
ETITLE: TS BOND ANGLE DIHED IMPRP ELECT VDW BOUNDARY MISC KINETIC TOTAL TEMP POTENTIAL TOTALAVG TEMPAVG PRESSURE GPRESSURE VOLUME PRESSAVG GPRESSAVG
ENERGY: 0 9.7175 24.7963 6.9399 0.0000 -10984.3185 1383.7646 0.0000 0.0000 1784.3064 -7774.7938 303.7564 -9559.1002 -7774.7938 303.7564 -322.1776 -244.6859 30272.4801 -322.1776 -244.6859
ENERGY: 300000 6.8680 18.3440 7.8099 0.0000 -11062.0349 1404.4761 0.0000 0.0000 1761.6066 -7862.9303 299.8920 -9624.5369 -7842.6163 297.7133 -580.5402 -496.7470 30326.8729 130.2824 207.8707
ENERGY: 600000 8.1251 16.2049 8.3222 0.0000 -11058.2044 1491.1084 0.0000 0.0000 1774.8754 -7759.5685 302.1509 -9534.4439 -7810.8397 301.0980 910.3894 890.2171 30039.1379 415.3362 482.3478
ENERGY: 900000 7.4648 21.1187 4.1259 0.0000 -10926.3404 1338.4182 0.0000 0.0000 1767.6015 -7787.6113 300.9126 -9555.2128 -7803.6850 300.9157 -1092.9815 -1042.3174 30887.5420 211.1241 263.1841
ENERGY: 1200000 7.8465 20.1215 9.2314 0.0000 -11025.8934 1405.6261 0.0000 0.0000 1747.0182 -7836.0498 297.4085 -9583.0680 -7815.4006 299.9965 -149.8942 -43.0349 30309.8279 138.8912 193.7401
ENERGY: 1500000 2.3714 19.4366 6.0682 0.0000 -11030.0948 1351.3865 0.0000 0.0000 1802.6999 -7848.1322 306.8876 -9650.8321 -7808.8920 301.3417 -1036.4113 -943.1530 30431.0933 58.0662 112.6221
TCL: Running FEP window  12: Lambda1 0.5499999999999999 Lambda2 0.6    [dLambda 0.050000000000000044]
TCL: Setting parameter firsttimestep to 0
TCL: Setting parameter alchLambda to 0.5499999999999999
Info: NONBONDED TABLE R-SQUARED SPACING: 0.0625
Info: NONBONDED TABLE SIZE: 705 POINTS
TCL: Setting parameter alchLambda2 to 0.6
Info: NONBONDED TABLE R-SQUARED SPACING: 0.0625
Info: NONBONDED TABLE SIZE: 705 POINTS
TCL: Running for 1500000 steps
ETITLE: TS BOND ANGLE DIHED IMPRP ELECT VDW BOUNDARY MISC KINETIC TOTAL TEMP POTENTIAL TOTALAVG TEMPAVG PRESSURE GPRESSURE VOLUME PRESSAVG GPRESSAVG
ENERGY: 0 2.3714 19.4366 6.0682 0.0000 -11029.9868 1350.4525 0.0000 0.0000 1801.8655 -7849.7927 306.7456 -9651.6581 -7849.7927 306.7456 -1024.1556 -939.8754 30431.0933 -1024.1556 -939.8754
ENERGY: 300000 7.7074 17.8025 7.1533 0.0000 -11182.8444 1495.6662 0.0000 0.0000 1715.7716 -7938.7433 292.0892 -9654.5149 -7882.2158 301.6717 267.3014 265.7437 30061.9963 12.1811 44.8829
ENERGY: 600000 6.8592 22.6751 12.7951 0.0000 -11045.7636 1392.6976 0.0000 0.0000 1785.4967 -7825.2399 303.9590 -9610.7366 -7857.8217 300.8502 -290.8493 -278.6322 30226.1323 -217.2132 -173.1555
ENERGY: 900000 11.3351 23.1414 6.1918 0.0000 -11189.3731 1477.5626 0.0000 0.0000 1721.9522 -7949.1900 293.1413 -9671.1422 -7855.6018 298.1980 202.4697 273.8783 30254.4064 -144.0948 -93.0910
ENERGY: 1200000 9.9053 25.7430 7.5448 0.0000 -11036.8371 1424.2014 0.0000 0.0000 1676.4077 -7893.0350 285.3879 -9569.4427 -7854.1592 298.1817 -483.7132 -360.4959 30663.0497 -96.0757 -37.5448
ENERGY: 1500000 6.3760 24.9715 8.5435 0.0000 -10849.9865 1304.2333 0.0000 0.0000 1754.7256 -7751.1367 298.7206 -9505.8623 -7848.3238 297.6248 -1084.7464 -1044.5586 30644.7266 -256.5993 -206.2450
TCL: Running FEP window  13: Lambda1 0.6    Lambda2 0.65   [dLambda 0.050000000000000044]
TCL: Setting parameter firsttimestep to 0
TCL: Setting parameter alchLambda to 0.6
Info: NONBONDED TABLE R-SQUARED SPACING: 0.0625
Info: NONBONDED TABLE SIZE: 705 POINTS
TCL: Setting parameter alchLambda2 to 0.65
Info: NONBONDED TABLE R-SQUARED SPACING: 0.0625
Info: NONBONDED TABLE SIZE: 705 POINTS
TCL: Running for 1500000 steps
ETITLE: TS BOND ANGLE DIHED IMPRP ELECT VDW BOUNDARY MISC KINETIC TOTAL TEMP POTENTIAL TOTALAVG TEMPAVG PRESSURE GPRESSURE VOLUME PRESSAVG GPRESSAVG
ENERGY: 0 6.3760 24.9715 8.5435 0.0000 -10850.0684 1303.2447 0.0000 0.0000 1753.8838 -7753.0489 298.5773 -9506.9327 -7753.0489 298.5773 -1116.5109 -1040.8010 30644.7266 -1116.5109 -1040.8010
ENERGY: 300000 5.6222 21.8611 4.2609 0.0000 -10978.9159 1394.2624 0.0000 0.0000 1760.7147 -7792.1946 299.7402 -9552.9093 -7797.8284 300.0979 -608.2597 -522.0440 30789.0018 -258.8136 -191.6419
ENERGY: 600000 10.1039 25.2690 10.2554 0.0000 -11026.5667 1440.5075 0.0000 0.0000 1752.3563 -7788.0746 298.3173 -9540.4309 -7799.0827 299.5863 417.3369 519.9805 30125.0806 -217.9826 -148.0122
ENERGY: 900000 5.1110 23.0408 2.9275 0.0000 -10941.8154 1317.4625 0.0000 0.0000 1748.1410 -7845.1325 297.5997 -9593.2735 -7834.0289 298.1082 -1003.5911 -908.6312 30498.4392 -266.3791 -196.4254
ENERGY: 1200000 9.5458 22.0273 7.4978 0.0000 -11135.4370 1526.5784 0.0000 0.0000 1794.0638 -7775.7238 305.4175 -9569.7876 -7829.0618 299.5376 1014.9264 1047.4684 30054.6095 -84.8585 -20.2894
ENERGY: 1500000 10.0259 20.1033 2.5133 0.0000 -10976.1328 1335.9542 0.0000 0.0000 1782.7596 -7824.7764 303.4930 -9607.5361 -7829.4718 299.8916 -715.0291 -627.1417 30270.7462 -62.9131 2.0681
TCL: Running FEP window  14: Lambda1 0.65   Lambda2 0.7000000000000001 [dLambda 0.050000000000000044]
TCL: Setting parameter firsttimestep to 0
TCL: Setting parameter alchLambda to 0.65
Info: NONBONDED TABLE R-SQUARED SPACING: 0.0625
Info: NONBONDED TABLE SIZE: 705 POINTS
TCL: Setting parameter alchLambda2 to 0.7000000000000001
Info: NONBONDED TABLE R-SQUARED SPACING: 0.0625
Info: NONBONDED TABLE SIZE: 705 POINTS
TCL: Running for 1500000 steps
ETITLE: TS BOND ANGLE DIHED IMPRP ELECT VDW BOUNDARY MISC KINETIC TOTAL TEMP POTENTIAL TOTALAVG TEMPAVG PRESSURE GPRESSURE VOLUME PRESSAVG GPRESSAVG
ENERGY: 0 10.0259 20.1033 2.5133 0.0000 -10977.1591 1335.8724 0.0000 0.0000 1781.8844 -7826.7597 303.3441 -9608.6441 -7826.7597 303.3441 -703.7883 -617.7074 30270.7462 -703.7883 -617.7074
ENERGY: 300000 8.5127 22.8783 5.2038 0.0000 -11139.4262 1456.0882 0.0000 0.0000 1705.2314 -7941.5118 290.2948 -9646.7432 -7874.6932 298.5898 258.6403 318.5530 29853.7196 -345.7820 -293.9042
ENERGY: 600000 5.0482 23.8652 4.9675 0.0000 -11085.0319 1490.1276 0.0000 0.0000 1780.4473 -7780.5760 303.0994 -9561.0233 -7879.6440 298.7774 396.5986 449.1921 30589.6767 -16.7513 20.4873
ENERGY: 900000 6.7636 27.0808 6.2399 0.0000 -11158.7398 1494.4370 0.0000 0.0000 1759.4928 -7864.7257 299.5322 -9624.2186 -7862.7902 299.2956 321.7842 382.7134 30123.7584 -29.0037 18.1290
ENERGY: 1200000 10.5212 24.4582 7.1365 0.0000 -11115.3458 1430.1438 0.0000 0.0000 1714.5714 -7928.5147 291.8848 -9643.0860 -7860.0939 298.2878 -26.2615 10.8295 29917.6483 -105.6272 -57.9948
ENERGY: 1500000 6.7203 31.8614 5.4745 0.0000 -11095.2041 1521.1466 0.0000 0.0000 1755.0155 -7774.9858 298.7699 -9530.0013 -7851.8351 298.5619 981.9934 1047.7167 30230.5069 -47.4674 0.0697
TCL: Running FEP window  15: Lambda1 0.7000000000000001 Lambda2 0.7500000000000001 [dLambda 0.050000000000000044]
TCL: Setting parameter firsttimestep to 0
TCL: Setting parameter alchLambda to 0.7000000000000001
Info: NONBONDED TABLE R-SQUARED SPACING: 0.0625
Info: NONBONDED TABLE SIZE: 705 POINTS
TCL: Setting parameter alchLambda2 to 0.7500000000000001
Info: NONBONDED TABLE R-SQUARED SPACING: 0.0625
Info: NONBONDED TABLE SIZE: 705 POINTS
TCL: Running for 1500000 steps
ETITLE: TS BOND ANGLE DIHED IMPRP ELECT VDW BOUNDARY MISC KINETIC TOTAL TEMP POTENTIAL TOTALAVG TEMPAVG PRESSURE GPRESSURE VOLUME PRESSAVG GPRESSAVG
ENERGY: 0 6.7203 31.8614 5.4745 0.0000 -11096.8822 1521.7699 0.0000 0.0000 1754.1099 -7776.9463 298.6158 -9531.0562 -7776.9463 298.6158 984.2727 1067.6063 30230.5069 984.2727 1067.6063
ENERGY: 300000 8.5416 19.7966 5.7414 0.0000 -11117.7358 1422.2522 0.0000 0.0000 1804.6457 -7856.7583 307.2189 -9661.4041 -7807.2106 302.6512 -392.6161 -337.7279 29980.1467 -71.1712 -15.8573
ENERGY: 600000 4.6768 21.0138 6.7392 0.0000 -11006.5252 1459.4678 0.0000 0.0000 1754.1251 -7760.5025 298.6184 -9514.6276 -7829.2293 300.7413 333.3318 343.6993 30675.1153 86.4112 130.4422
ENERGY: 900000 4.9415 17.7364 9.0190 0.0000 -10906.8296 1389.6827 0.0000 0.0000 1788.0111 -7697.4389 304.3870 -9485.4500 -7806.4144 301.2562 65.2699 173.0648 30121.0561 -32.0086 29.2389
ENERGY: 1200000 6.8888 19.2749 7.6287 0.0000 -10992.3909 1435.5452 0.0000 0.0000 1717.0349 -7806.0183 292.3042 -9523.0532 -7816.7260 299.8844 165.2272 293.2840 30126.7873 6.7327 70.9138
ENERGY: 1500000 11.4040 19.3943 8.5213 0.0000 -11072.8235 1400.6208 0.0000 0.0000 1762.8772 -7870.0059 300.1083 -9632.8831 -7825.0920 299.9210 -169.8420 -107.3359 30021.1395 -25.4481 34.4868
TCL: Running FEP window  16: Lambda1 0.7500000000000001 Lambda2 0.8000000000000002 [dLambda 0.050000000000000044]
TCL: Setting parameter firsttimestep to 0
TCL: Setting parameter alchLambda to 0.7500000000000001
Info: NONBONDED TABLE R-SQUARED SPACING: 0.0625
Info: NONBONDED TABLE SIZE: 705 POINTS
TCL: Setting parameter alchLambda2 to 0.8000000000000002
Info: NONBONDED TABLE R-SQUARED SPACING: 0.0625
Info: NONBONDED TABLE SIZE: 705 POINTS
TCL: Running for 1500000 steps
ETITLE: TS BOND ANGLE DIHED IMPRP ELECT VDW BOUNDARY MISC KINETIC TOTAL TEMP POTENTIAL TOTALAVG TEMPAVG PRESSURE GPRESSURE VOLUME PRESSAVG GPRESSAVG
ENERGY: 0 11.4040 19.3943 8.5213 0.0000 -11074.7489 1401.1890 0.0000 0.0000 1762.0058 -7872.2345 299.9600 -9634.2403 -7872.2345 299.9600 -155.9114 -86.1126 30021.1395 -155.9114 -86.1126
ENERGY: 300000 8.0075 25.2609 7.0927 0.0000 -11037.1578 1377.7908 0.0000 0.0000 1720.5504 -7898.4556 292.9027 -9619.0059 -7864.2552 295.1894 -377.7496 -326.1115 30333.4294 -391.2305 -307.5088
ENERGY: 600000 8.4655 23.2029 8.7146 0.0000 -10965.6374 1413.8402 0.0000 0.0000 1800.5859 -7710.8283 306.5278 -9511.4142 -7832.4171 298.1558 215.9705 264.9593 30471.1297 -279.5128 -203.0357
ENERGY: 900000 3.8441 20.3554 4.8594 0.0000 -11072.1763 1413.1702 0.0000 0.0000 1743.5699 -7886.3772 296.8215 -9629.9471 -7841.2176 299.0435 -469.8519 -383.9390 30563.3589 -413.6060 -337.8828
ENERGY: 1200000 4.6624 18.1033 6.0013 0.0000 -10957.2970 1366.4448 0.0000 0.0000 1768.4340 -7793.6511 301.0543 -9562.0851 -7828.1815 299.3457 -333.4592 -221.1748 29973.3251 -369.3024 -294.2546
ENERGY: 1500000 7.2444 27.8110 7.3859 0.0000 -11211.1306 1604.4417 0.0000 0.0000 1772.1744 -7792.0732 301.6910 -9564.2476 -7822.8602 299.8601 1490.7435 1580.8338 30232.9306 -183.4014 -108.3217
TCL: Running FEP window  17: Lambda1 0.8000000000000002 Lambda2 0.8500000000000002 [dLambda 0.050000000000000044]
TCL: Setting parameter firsttimestep to 0
TCL: Setting parameter alchLambda to 0.8000000000000002
Info: NONBONDED TABLE R-SQUARED SPACING: 0.0625
Info: NONBONDED TABLE SIZE: 705 POINTS
TCL: Setting parameter alchLambda2 to 0.8500000000000002
Info: NONBONDED TABLE R-SQUARED SPACING: 0.0625
Info: NONBONDED TABLE SIZE: 705 POINTS
TCL: Running for 1500000 steps
ETITLE: TS BOND ANGLE DIHED IMPRP ELECT VDW BOUNDARY MISC KINETIC TOTAL TEMP POTENTIAL TOTALAVG TEMPAVG PRESSURE GPRESSURE VOLUME PRESSAVG GPRESSAVG
ENERGY: 0 7.2444 27.8110 7.3859 0.0000 -11213.5219 1607.0156 0.0000 0.0000 1771.3198 -7792.7452 301.5456 -9564.0650 -7792.7452 301.5456 1546.3020 1626.1763 30232.9306 1546.3020 1626.1763
ENERGY: 300000 6.0965 18.2041 6.8528 0.0000 -11112.4678 1483.4206 0.0000 0.0000 1764.2136 -7833.6803 300.3358 -9597.8938 -7797.3512 301.2700 552.7303 673.7276 30040.0554 627.6396 709.0520
ENERGY: 600000 3.0456 20.9301 11.6380 0.0000 -11004.4232 1345.1402 0.0000 0.0000 1722.8394 -7900.8299 293.2924 -9623.6693 -7829.6974 298.9581 -953.9583 -905.2529 30568.6968 322.6896 399.9485
ENERGY: 900000 6.1591 17.4295 4.2095 0.0000 -11101.3553 1371.7110 0.0000 0.0000 1787.5535 -7914.2926 304.3091 -9701.8461 -7848.4534 298.7026 -352.0867 -285.6144 29464.0061 225.1037 295.4995
ENERGY: 1200000 5.9323 25.5731 6.2749 0.0000 -11043.3929 1409.7606 0.0000 0.0000 1807.1796 -7788.6724 307.6502 -9595.8520 -7848.6390 299.4888 -97.7527 -82.2139 30357.4709 203.0450 263.8162
ENERGY: 1500000 9.5203 15.7177 7.7838 0.0000 -11179.2431 1498.3623 0.0000 0.0000 1716.6860 -7931.1730 292.2448 -9647.8590 -7847.0976 299.7998 530.6372 615.2101 29905.8152 123.4059 189.0693
TCL: Running FEP window  18: Lambda1 0.8500000000000002 Lambda2 0.9000000000000002 [dLambda 0.050000000000000044]
TCL: Setting parameter firsttimestep to 0
TCL: Setting parameter alchLambda to 0.8500000000000002
Info: NONBONDED TABLE R-SQUARED SPACING: 0.0625
Info: NONBONDED TABLE SIZE: 705 POINTS
TCL: Setting parameter alchLambda2 to 0.9000000000000002
Info: NONBONDED TABLE R-SQUARED SPACING: 0.0625
Info: NONBONDED TABLE SIZE: 705 POINTS
TCL: Running for 1500000 steps
ETITLE: TS BOND ANGLE DIHED IMPRP ELECT VDW BOUNDARY MISC KINETIC TOTAL TEMP POTENTIAL TOTALAVG TEMPAVG PRESSURE GPRESSURE VOLUME PRESSAVG GPRESSAVG
ENERGY: 0 9.5203 15.7177 7.7838 0.0000 -11181.3305 1499.0446 0.0000 0.0000 1715.7683 -7933.4958 292.0886 -9649.2641 -7933.4958 292.0886 571.1803 642.7707 29905.8152 571.1803 642.7707
ENERGY: 300000 9.5362 20.3120 5.8845 0.0000 -11070.2910 1360.1015 0.0000 0.0000 1759.8016 -7914.6551 299.5847 -9674.4567 -7906.8270 293.8539 -692.9244 -623.1673 30313.6570 -87.7958 -29.4417
ENERGY: 600000 2.9243 19.0939 6.3613 0.0000 -11113.4836 1486.1078 0.0000 0.0000 1748.8467 -7850.1496 297.7198 -9598.9963 -7876.7088 295.9971 208.7207 225.4515 30827.7061 62.5909 101.3036
ENERGY: 900000 5.3869 17.8397 8.5409 0.0000 -11062.7321 1400.6955 0.0000 0.0000 1799.0789 -7831.1901 306.2712 -9630.2690 -7868.7368 298.1965 -142.4658 -52.6954 30149.5421 52.5459 105.6953
ENERGY: 1200000 10.3795 24.6453 5.2721 0.0000 -11141.6024 1505.3117 0.0000 0.0000 1830.6173 -7765.3764 311.6402 -9595.9938 -7856.1800 298.8386 955.9077 1044.3548 30141.0233 165.2640 226.1730
ENERGY: 1500000 5.5515 21.7921 8.3869 0.0000 -10993.0858 1371.2220 0.0000 0.0000 1733.9231 -7852.2102 295.1792 -9586.1333 -7847.5448 298.2355 -648.5912 -602.9774 30776.0076 92.4128 153.0225
TCL: Running FEP window  19: Lambda1 0.9000000000000002 Lambda2 0.9500000000000003 [dLambda 0.050000000000000044]
TCL: Setting parameter firsttimestep to 0
TCL: Setting parameter alchLambda to 0.9000000000000002
Info: NONBONDED TABLE R-SQUARED SPACING: 0.0625
Info: NONBONDED TABLE SIZE: 705 POINTS
TCL: Setting parameter alchLambda2 to 0.9500000000000003
Info: NONBONDED TABLE R-SQUARED SPACING: 0.0625
Info: NONBONDED TABLE SIZE: 705 POINTS
TCL: Running for 1500000 steps
ETITLE: TS BOND ANGLE DIHED IMPRP ELECT VDW BOUNDARY MISC KINETIC TOTAL TEMP POTENTIAL TOTALAVG TEMPAVG PRESSURE GPRESSURE VOLUME PRESSAVG GPRESSAVG
ENERGY: 0 5.5515 21.7921 8.3869 0.0000 -10994.6830 1372.3030 0.0000 0.0000 1733.0215 -7853.6280 295.0257 -9586.6495 -7853.6280 295.0257 -657.8185 -568.2573 30776.0076 -657.8185 -568.2573
ENERGY: 300000 4.0711 16.7127 2.8351 0.0000 -11059.3095 1416.6807 0.0000 0.0000 1726.8630 -7892.1469 293.9773 -9619.0099 -7834.8953 298.3995 -408.6781 -315.3501 30437.7269 112.6634 184.0811
ENERGY: 600000 3.7658 29.0431 8.1957 0.0000 -10971.2788 1415.5900 0.0000 0.0000 1712.8518 -7801.8325 291.5921 -9514.6843 -7841.7206 297.7509 -94.9268 -28.0702 30657.2672 -173.3981 -97.3665
ENERGY: 900000 8.4700 24.2673 6.8496 0.0000 -11087.4066 1477.4247 0.0000 0.0000 1744.7176 -7825.6774 297.0169 -9570.3950 -7849.0700 296.9755 405.3804 478.9555 30580.5138 -319.2335 -241.4098
ENERGY: 1200000 8.3533 25.0156 11.0961 0.0000 -10977.5738 1321.4052 0.0000 0.0000 1850.9758 -7760.7278 315.1060 -9611.7036 -7844.5544 298.5754 -714.9534 -691.5811 30450.1953 -250.4818 -184.0067
ENERGY: 1500000 7.2410 19.7382 9.2961 0.0000 -11038.1647 1424.0457 0.0000 0.0000 1753.1251 -7824.7185 298.4481 -9577.8436 -7844.5942 299.0070 215.9826 230.1400 30130.3615 -243.3530 -180.2740
TCL: Running FEP window  20: Lambda1 0.9500000000000003 Lambda2 1.0    [dLambda 0.04999999999999971]
TCL: Setting parameter firsttimestep to 0
TCL: Setting parameter alchLambda to 0.9500000000000003
Info: NONBONDED TABLE R-SQUARED SPACING: 0.0625
Info: NONBONDED TABLE SIZE: 705 POINTS
TCL: Setting parameter alchLambda2 to 1.0
Info: NONBONDED TABLE R-SQUARED SPACING: 0.0625
Info: NONBONDED TABLE SIZE: 705 POINTS
TCL: Running for 1500000 steps
ETITLE: TS BOND ANGLE DIHED IMPRP ELECT VDW BOUNDARY MISC KINETIC TOTAL TEMP POTENTIAL TOTALAVG TEMPAVG PRESSURE GPRESSURE VOLUME PRESSAVG GPRESSAVG
ENERGY: 0 7.2410 19.7382 9.2961 0.0000 -11040.2963 1425.0900 0.0000 0.0000 1752.2525 -7826.6785 298.2996 -9578.9309 -7826.6785 298.2996 191.4260 259.5782 30130.3615 191.4260 259.5782
ENERGY: 300000 3.7852 19.2371 8.3667 0.0000 -10927.1459 1320.0494 0.0000 0.0000 1760.5748 -7815.1328 299.7163 -9575.7075 -7851.4358 297.4278 -920.4236 -870.4247 30430.5662 -332.8668 -269.5480
ENERGY: 600000 8.1041 18.1728 10.5116 0.0000 -11090.1777 1430.8646 0.0000 0.0000 1798.3411 -7824.1834 306.1456 -9622.5245 -7834.7352 299.2899 390.5922 527.1531 29874.0631 -213.5897 -147.0501
ENERGY: 900000 7.3388 18.7903 9.0889 0.0000 -11080.8009 1454.2011 0.0000 0.0000 1707.7026 -7883.6792 290.7155 -9591.3818 -7835.3866 300.1778 20.1347 28.7284 30434.0757 -198.4293 -132.2630
ENERGY: 1200000 5.6893 21.6893 15.7379 0.0000 -11046.3403 1364.4280 0.0000 0.0000 1747.9079 -7890.8878 297.5600 -9638.7957 -7836.2044 301.0033 -768.7567 -653.3288 30478.0939 -265.4196 -196.0079
ENERGY: 1500000 6.5054 17.7073 6.9404 0.0000 -11138.1849 1489.2959 0.0000 0.0000 1742.1679 -7875.5680 296.5828 -9617.7360 -7839.1703 300.6444 693.3913 754.9498 30269.9742 -166.0956 -102.1243
TCL: Exiting due to exit command.
