Info: SIMULATION PARAMETERS:
Info: TIMESTEP               2
Info: NUMBER OF STEPS        0
Info: STEPS PER CYCLE        10
Info: PERIODIC CELL BASIS 1  32.1849 0 0
Info: PERIODIC CELL BASIS 2  0 29.3765 0
Info: PERIODIC CELL BASIS 3  0 0 31.8392
Info: PERIODIC CELL CENTER   0 0 0
Info: WRAPPING WATERS AROUND PERIODIC BOUNDARIES ON OUTPUT.
Info: WRAPPING ALL CLUSTERS AROUND PERIODIC BOUNDARIES ON OUTPUT.
Info: FIRST LDB TIMESTEP     50
Info: LAST LDB TIMESTEP     -1
Info: HOM BACKGROUND SCALING 1
Info: PME BACKGROUND SCALING 1
Info: MIN ATOMS PER PATCH    40
Info: EMPTY PATCH LOAD       40 ATOMS
Info: VELOCITY FILE          mobley_9281946_equil.vel
Info: CENTER OF MASS MOVING INITIALLY? NO
Info: DIELECTRIC             1
Info: EXCLUDE                SCALED ONE-FOUR
Info: 1-4 ELECTROSTATICS SCALED BY 0.833333
Info: MODIFIED 1-4 VDW PARAMETERS WILL BE USED
Info: DCD FILENAME           mobley_9281946_prod.dcd
Info: DCD FREQUENCY          100000
Info: DCD FIRST STEP         100000
Info: DCD FILE WILL CONTAIN UNIT CELL DATA
Info: XST FILENAME           mobley_9281946_prod.xst
Info: XST FREQUENCY          100000
Info: NO VELOCITY DCD OUTPUT
Info: NO FORCE DCD OUTPUT
Info: OUTPUT FILENAME        mobley_9281946_prod
Info: BINARY OUTPUT FILES WILL BE USED
Info: RESTART FILENAME       mobley_9281946_prod.restart
Info: RESTART FREQUENCY      100000
Info: BINARY RESTART FILES WILL BE USED
Info: CUTOFF                 9
Info: PAIRLIST DISTANCE      11
Info: PAIRLIST SHRINK RATE   0.01
Info: PAIRLIST GROW RATE     0.01
Info: PAIRLIST TRIGGER       0.3
Info: PAIRLISTS PER CYCLE    2
Info: PAIRLISTS ENABLED
Info: MARGIN                 2
Info: HYDROGEN GROUP CUTOFF  2.5
Info: PATCH DIMENSION        15.5
Info: ENERGY OUTPUT STEPS    100000
Info: ENERGY EVALUATION STEPS    100000
Info: OUTPUT ENERGY PRECISION 4
Info: CROSSTERM ENERGY INCLUDED IN DIHEDRAL
Info: TIMING OUTPUT STEPS    1000000
Info: PRESSURE OUTPUT STEPS  100000
Info: ALCHEMICAL FEP ON
Info: FEP CURRENT LAMBDA VALUE     1
Info: FEP COMPARISON LAMBDA VALUE  0.95
Info: FEP INTRA-ALCHEMICAL NON-BONDED INTERACTIONS WILL BE RETAINED
Info: FEP INTRA-ALCHEMICAL BONDED INTERACTIONS WILL BE RETAINED
Info: FEP VDW SHIFTING COEFFICIENT 5
Info: FEP ELEC. ACTIVE FOR ANNIHILATED PARTICLES BETWEEN LAMBDA = 0 AND LAMBDA = 0.5
Info: FEP ELEC. ACTIVE FOR EXNIHILATED PARTICLES BETWEEN LAMBDA = 0.5 AND LAMBDA = 1
Info: FEP VDW ACTIVE FOR ANNIHILATED PARTICLES BETWEEN LAMBDA = 0 AND LAMBDA = 1
Info: FEP VDW ACTIVE FOR EXNIHILATED PARTICLES BETWEEN LAMBDA = 0 AND LAMBDA = 1
Info: FEP BOND ACTIVE FOR ANNIHILATED PARTICLES BETWEEN LAMBDA = 1 AND LAMBDA = 1
Info: FEP BOND ACTIVE FOR EXNIHILATED PARTICLES BETWEEN LAMBDA = 0 AND LAMBDA = 0
Info: LANGEVIN DYNAMICS ACTIVE
Info: LANGEVIN TEMPERATURE   300
Info: LANGEVIN USING BBK INTEGRATOR
Info: LANGEVIN DAMPING COEFFICIENT IS 1 INVERSE PS
Info: LANGEVIN DYNAMICS APPLIED TO HYDROGENS
Info: LANGEVIN PISTON PRESSURE CONTROL ACTIVE
Info:        TARGET PRESSURE IS 1.01325 BAR
Info:     OSCILLATION PERIOD IS 50 FS
Info:             DECAY TIME IS 25 FS
Info:     PISTON TEMPERATURE IS 300 K
Info:       PRESSURE CONTROL IS GROUP-BASED
Info:    INITIAL STRAIN RATE IS -0.000379601 -0.000379601 -0.000379601
Info:       CELL FLUCTUATION IS ISOTROPIC
Info: PARTICLE MESH EWALD (PME) ACTIVE
Info: PME TOLERANCE               1e-06
Info: PME EWALD COEFFICIENT       0.348832
Info: PME INTERPOLATION ORDER     4
Info: PME GRID DIMENSIONS         36 32 32
Info: PME MAXIMUM GRID SPACING    1
Info: PME CALCULATION WILL BE PERFORMED ON GPU
Info: FULL ELECTROSTATIC EVALUATION FREQUENCY      2
Info: USING VERLET I (r-RESPA) MTS SCHEME.
Info: C1 SPLITTING OF LONG RANGE ELECTROSTATICS
Info: PLACING ATOMS IN PATCHES BY HYDROGEN GROUPS
Info: RIGID BONDS TO HYDROGEN : ALL
Info:         ERROR TOLERANCE : 1e-08
Info:          MAX ITERATIONS : 100
Info: RIGID WATER USING SETTLE ALGORITHM
Info: RANDOM NUMBER SEED     1744084882
Info: USE HYDROGEN BONDS?    NO
Info: Using AMBER format force field!
Info: AMBER PARM FILE        mobley_9281946.prmtop
Info: COORDINATE PDB         mobley_9281946.pdb
Info: Exclusions will be read from PARM file!
Info: SCNB (VDW SCALING)     2
Info: USING ARITHMETIC MEAN TO COMBINE L-J SIGMA PARAMETERS
Info: BINARY COORDINATES     mobley_9281946_equil.coor
Info: SUMMARY OF PARAMETERS:
Info: 13 BONDS
Info: 16 ANGLES
Info:   16 HARMONIC
Info:   0 COSINE-BASED
Info: 12 DIHEDRAL
Info: 0 IMPROPER
Info: 0 CROSSTERM
Info: 0 VDW
Info: 78 VDW_PAIRS
Info: 0 NBTHOLE_PAIRS
Info: To read alchdata from file: mobley_9281946.pdb
Info: To read alchflag data from column: 5
Info: STRUCTURE SUMMARY:
Info: 2918 ATOMS
Info: 2918 BONDS
Info: 54 ANGLES
Info: 81 DIHEDRALS
Info: 0 IMPROPERS
Info: 0 CROSSTERMS
Info: 3032 EXCLUSIONS
Info: 2900 RIGID BONDS
Info: ALCH: 0 ATOMS TO DISAPPEAR IN FINAL STATE
Info: ALCH: 32 ATOMS TO APPEAR IN FINAL STATE
Info: 5854 DEGREES OF FREEDOM
Info: 980 HYDROGEN GROUPS
Info: 4 ATOMS IN LARGEST HYDROGEN GROUP
Info: 980 MIGRATION GROUPS
Info: 4 ATOMS IN LARGEST MIGRATION GROUP
Info: TOTAL MASS = 17622.6 amu
Info: TOTAL CHARGE = -0.000100061 e
Info: MASS DENSITY = 0.972112 g/cm^3
Info: ATOM DENSITY = 0.0969329 atoms/A^3
Info: ADDED 0 IMPLICIT EXCLUSIONS
Info: NONBONDED TABLE R-SQUARED SPACING: 0.0625
Info: NONBONDED TABLE SIZE: 705 POINTS
Info: REMOVING COM VELOCITY 0.0344739 0.0714121 0.216805
Info: Use 3D box decompostion in PME FFT.
Info: Updated CUDA force table with 4096 elements.
Info: Updated CUDA LJ table with 12 x 12 elements.
Info: Found 34 unique exclusion lists needing 136 bytes
TCL: Running for 1500000 steps
ETITLE: TS BOND ANGLE DIHED IMPRP ELECT VDW BOUNDARY MISC KINETIC TOTAL TEMP POTENTIAL TOTALAVG TEMPAVG PRESSURE GPRESSURE VOLUME PRESSAVG GPRESSAVG
ENERGY: 0 5.1687 13.9707 17.7277 0.0000 -10618.3471 1397.4839 0.0000 0.0000 1814.4181 -7369.5780 311.9429 -9183.9961 -7369.5780 311.9429 -115.9579 -44.0094 30103.2877 -115.9579 -44.0094
ENERGY: 300000 8.1667 19.1497 16.9384 0.0000 -10604.4862 1393.4973 0.0000 0.0000 1739.1943 -7427.5398 299.0100 -9166.7341 -7391.2838 302.4158 -258.9611 -179.9427 30411.1227 -236.1291 -158.7265
ENERGY: 600000 4.2622 19.4940 21.2279 0.0000 -10564.9181 1349.3667 0.0000 0.0000 1704.2357 -7466.3316 292.9998 -9170.5673 -7397.7660 300.1299 -129.7104 -81.0230 29869.5364 -44.3245 24.6941
ENERGY: 900000 11.5791 11.0602 19.7496 0.0000 -10619.4283 1410.5585 0.0000 0.0000 1752.7195 -7413.7614 301.3353 -9166.4809 -7397.7528 300.3502 151.3936 261.2267 29874.8106 -36.0827 30.0451
ENERGY: 1200000 6.1659 12.0118 15.2921 0.0000 -10694.6080 1481.5273 0.0000 0.0000 1766.7144 -7412.8966 303.7414 -9179.6109 -7394.3937 300.4755 712.3683 759.1851 29313.6107 101.6243 167.3079
ENERGY: 1500000 6.0995 21.4415 18.3638 0.0000 -10556.6441 1343.4302 0.0000 0.0000 1734.4510 -7432.8582 298.1945 -9167.3091 -7406.5903 299.8984 -557.0357 -549.3898 29942.3464 32.5427 99.6446
TCL: Running FEP window   2: Lambda1 0.95   Lambda2 0.8999999999999999 [dLambda -0.050000000000000044]
TCL: Setting parameter firsttimestep to 0
TCL: Setting parameter alchLambda to 0.95
Info: NONBONDED TABLE R-SQUARED SPACING: 0.0625
Info: NONBONDED TABLE SIZE: 705 POINTS
TCL: Setting parameter alchLambda2 to 0.8999999999999999
Info: NONBONDED TABLE R-SQUARED SPACING: 0.0625
Info: NONBONDED TABLE SIZE: 705 POINTS
TCL: Running for 1500000 steps
ETITLE: TS BOND ANGLE DIHED IMPRP ELECT VDW BOUNDARY MISC KINETIC TOTAL TEMP POTENTIAL TOTALAVG TEMPAVG PRESSURE GPRESSURE VOLUME PRESSAVG GPRESSAVG
ENERGY: 0 6.0994 21.4415 18.3638 0.0000 -10554.4199 1343.3913 0.0000 0.0000 1733.5645 -7431.5592 298.0421 -9165.1238 -7431.5592 298.0421 -664.4746 -573.8902 29942.3464 -664.4746 -573.8902
ENERGY: 300000 5.4265 14.6894 19.3561 0.0000 -10414.9943 1304.5592 0.0000 0.0000 1788.8663 -7282.0967 307.5499 -9070.9631 -7387.0080 302.6082 -886.1299 -790.3601 30724.9443 -362.2373 -272.5990
ENERGY: 600000 8.5980 16.0372 21.4713 0.0000 -10504.2823 1356.0269 0.0000 0.0000 1789.5497 -7312.5992 307.6674 -9102.1490 -7370.1872 303.0902 -163.4805 -173.7676 30208.5939 -222.0804 -159.4408
ENERGY: 900000 4.7974 12.9435 18.8876 0.0000 -10674.6375 1530.1679 0.0000 0.0000 1654.5566 -7453.2845 284.4587 -9107.8411 -7397.2773 299.3270 872.2469 952.4662 29825.9009 -178.0300 -110.0405
ENERGY: 1200000 5.0122 16.9376 20.9523 0.0000 -10434.5360 1325.2388 0.0000 0.0000 1700.3082 -7366.0870 292.3246 -9066.3952 -7398.7905 298.7284 -570.0453 -536.5135 30564.4421 -189.4367 -127.7665
ENERGY: 1500000 5.8091 11.9131 24.8283 0.0000 -10670.8123 1475.6805 0.0000 0.0000 1747.8196 -7404.7618 300.4929 -9152.5813 -7391.5234 299.6579 412.9100 415.6480 30310.6903 -128.9358 -69.7077
TCL: Running FEP window   3: Lambda1 0.8999999999999999 Lambda2 0.8499999999999999 [dLambda -0.050000000000000044]
TCL: Setting parameter firsttimestep to 0
TCL: Setting parameter alchLambda to 0.8999999999999999
Info: NONBONDED TABLE R-SQUARED SPACING: 0.0625
Info: NONBONDED TABLE SIZE: 705 POINTS
TCL: Setting parameter alchLambda2 to 0.8499999999999999
Info: NONBONDED TABLE R-SQUARED SPACING: 0.0625
Info: NONBONDED TABLE SIZE: 705 POINTS
TCL: Running for 1500000 steps
ETITLE: TS BOND ANGLE DIHED IMPRP ELECT VDW BOUNDARY MISC KINETIC TOTAL TEMP POTENTIAL TOTALAVG TEMPAVG PRESSURE GPRESSURE VOLUME PRESSAVG GPRESSAVG
ENERGY: 0 5.8092 11.9131 24.8283 0.0000 -10668.4954 1474.7029 0.0000 0.0000 1746.9430 -7404.2990 300.3422 -9151.2420 -7404.2990 300.3422 311.4680 384.7134 30310.6903 311.4680 384.7134
ENERGY: 300000 5.4133 20.6004 29.7489 0.0000 -10727.8479 1489.8125 0.0000 0.0000 1784.0880 -7398.1848 306.7284 -9182.2728 -7399.9986 300.5364 117.8541 219.1148 30080.0070 24.3127 103.0150
ENERGY: 600000 6.1862 14.4688 23.1648 0.0000 -10564.6415 1456.3367 0.0000 0.0000 1742.2515 -7322.2334 299.5356 -9064.4849 -7397.8707 299.1030 905.7857 1015.5289 29485.6192 241.0346 318.5500
ENERGY: 900000 6.8720 13.9134 21.6389 0.0000 -10479.7110 1356.9586 0.0000 0.0000 1722.0851 -7358.2430 296.0685 -9080.3281 -7386.4174 299.0896 -649.1244 -592.0200 30554.9201 62.1110 137.1279
ENERGY: 1200000 5.6814 9.5451 23.5549 0.0000 -10642.8131 1444.2404 0.0000 0.0000 1750.5539 -7409.2373 300.9630 -9159.7913 -7382.4139 299.5670 243.8749 325.5293 30313.9910 107.5812 181.2770
ENERGY: 1500000 5.2291 13.6955 19.8467 0.0000 -10571.2064 1339.4607 0.0000 0.0000 1739.3851 -7453.5893 299.0428 -9192.9744 -7382.4863 299.6949 -625.3319 -544.5668 29682.5290 87.3506 153.4624
TCL: Running FEP window   4: Lambda1 0.8499999999999999 Lambda2 0.7999999999999998 [dLambda -0.050000000000000044]
TCL: Setting parameter firsttimestep to 0
TCL: Setting parameter alchLambda to 0.8499999999999999
Info: NONBONDED TABLE R-SQUARED SPACING: 0.0625
Info: NONBONDED TABLE SIZE: 705 POINTS
TCL: Setting parameter alchLambda2 to 0.7999999999999998
Info: NONBONDED TABLE R-SQUARED SPACING: 0.0625
Info: NONBONDED TABLE SIZE: 705 POINTS
TCL: Running for 1500000 steps
ETITLE: TS BOND ANGLE DIHED IMPRP ELECT VDW BOUNDARY MISC KINETIC TOTAL TEMP POTENTIAL TOTALAVG TEMPAVG PRESSURE GPRESSURE VOLUME PRESSAVG GPRESSAVG
ENERGY: 0 5.2291 13.6955 19.8467 0.0000 -10568.1251 1338.7611 0.0000 0.0000 1738.5304 -7452.0622 298.8959 -9190.5926 -7452.0622 298.8959 -647.8316 -573.6759 29682.5290 -647.8316 -573.6759
ENERGY: 300000 5.3910 11.9931 20.6564 0.0000 -10554.5427 1393.7597 0.0000 0.0000 1704.8222 -7417.9202 293.1006 -9122.7425 -7403.2052 298.3494 -79.8290 -18.9279 30242.2423 -488.7109 -421.8045
ENERGY: 600000 10.3519 12.1114 23.3767 0.0000 -10609.1545 1433.2133 0.0000 0.0000 1734.1078 -7395.9934 298.1356 -9130.1013 -7398.4829 298.7142 205.0166 287.2747 29783.5211 -132.8178 -62.6333
ENERGY: 900000 5.7980 12.2417 22.9020 0.0000 -10524.6426 1355.2860 0.0000 0.0000 1719.7815 -7408.6335 295.6725 -9128.4149 -7408.6616 297.6561 -572.7873 -535.0530 30272.8911 -179.1421 -121.9887
ENERGY: 1200000 6.3318 13.6495 18.0387 0.0000 -10499.5061 1366.7040 0.0000 0.0000 1763.4110 -7331.3713 303.1735 -9094.7823 -7399.5299 298.2754 53.1046 50.9241 30287.9084 -267.5986 -213.4603
ENERGY: 1500000 10.9187 19.0481 18.5579 0.0000 -10497.2891 1354.4107 0.0000 0.0000 1788.8859 -7305.4678 307.5532 -9094.3537 -7387.4200 300.1101 -761.7895 -766.2516 30761.1058 -255.3426 -209.7947
TCL: Running FEP window   5: Lambda1 0.7999999999999998 Lambda2 0.7499999999999998 [dLambda -0.050000000000000044]
TCL: Setting parameter firsttimestep to 0
TCL: Setting parameter alchLambda to 0.7999999999999998
Info: NONBONDED TABLE R-SQUARED SPACING: 0.0625
Info: NONBONDED TABLE SIZE: 705 POINTS
TCL: Setting parameter alchLambda2 to 0.7499999999999998
Info: NONBONDED TABLE R-SQUARED SPACING: 0.0625
Info: NONBONDED TABLE SIZE: 705 POINTS
TCL: Running for 1500000 steps
ETITLE: TS BOND ANGLE DIHED IMPRP ELECT VDW BOUNDARY MISC KINETIC TOTAL TEMP POTENTIAL TOTALAVG TEMPAVG PRESSURE GPRESSURE VOLUME PRESSAVG GPRESSAVG
ENERGY: 0 10.9187 19.0481 18.5579 0.0000 -10494.9649 1354.6115 0.0000 0.0000 1788.0183 -7303.8105 307.4041 -9091.8287 -7303.8105 307.4041 -862.6361 -778.9577 30761.1058 -862.6361 -778.9577
ENERGY: 300000 5.9807 15.5022 18.1129 0.0000 -10743.1016 1567.6164 0.0000 0.0000 1767.4379 -7368.4514 303.8658 -9135.8894 -7366.1025 301.9079 1526.2023 1592.2863 29593.8069 30.5541 86.2512
ENERGY: 600000 7.0830 9.0408 23.4591 0.0000 -10473.4331 1325.0528 0.0000 0.0000 1715.9563 -7392.8411 295.0149 -9108.7974 -7386.7258 299.5907 -636.3674 -556.0461 30553.1819 -143.6081 -74.6572
ENERGY: 900000 6.3642 13.6103 21.1903 0.0000 -10746.2925 1552.5639 0.0000 0.0000 1798.2199 -7354.3439 309.1580 -9152.5637 -7374.2677 301.0973 868.9550 976.8146 30089.9436 -65.4225 3.5440
ENERGY: 1200000 2.7524 11.7993 25.4862 0.0000 -10567.0195 1458.5539 0.0000 0.0000 1753.6818 -7314.7459 301.5008 -9068.4277 -7363.0799 301.4903 820.8601 842.3705 29816.2995 65.1708 127.5594
ENERGY: 1500000 6.5401 13.7768 18.7371 0.0000 -10514.5640 1403.4502 0.0000 0.0000 1726.2225 -7345.8372 296.7799 -9072.0597 -7366.3288 300.4919 35.1473 82.4200 30293.0797 80.0292 136.5066
TCL: Running FEP window   6: Lambda1 0.7499999999999998 Lambda2 0.6999999999999997 [dLambda -0.050000000000000044]
TCL: Setting parameter firsttimestep to 0
TCL: Setting parameter alchLambda to 0.7499999999999998
Info: NONBONDED TABLE R-SQUARED SPACING: 0.0625
Info: NONBONDED TABLE SIZE: 705 POINTS
TCL: Setting parameter alchLambda2 to 0.6999999999999997
Info: NONBONDED TABLE R-SQUARED SPACING: 0.0625
Info: NONBONDED TABLE SIZE: 705 POINTS
TCL: Running for 1500000 steps
ETITLE: TS BOND ANGLE DIHED IMPRP ELECT VDW BOUNDARY MISC KINETIC TOTAL TEMP POTENTIAL TOTALAVG TEMPAVG PRESSURE GPRESSURE VOLUME PRESSAVG GPRESSAVG
ENERGY: 0 6.5401 13.7768 18.7371 0.0000 -10513.4418 1403.6462 0.0000 0.0000 1725.3603 -7345.3811 296.6316 -9070.7415 -7345.3811 296.6316 -25.2531 68.0807 30293.0797 -25.2531 68.0807
ENERGY: 300000 3.3599 14.6525 19.7654 0.0000 -10604.8009 1417.1160 0.0000 0.0000 1709.2675 -7440.6396 293.8649 -9149.9071 -7396.1925 299.1378 89.2890 94.2374 30215.5090 120.1787 179.7669
ENERGY: 600000 11.4757 13.3005 23.0612 0.0000 -10537.6129 1388.9722 0.0000 0.0000 1734.4920 -7366.3111 298.2016 -9100.8032 -7389.2803 298.3001 -247.1479 -219.3916 30110.3447 -84.9291 -36.7555
ENERGY: 900000 5.6978 15.9038 16.2224 0.0000 -10661.4936 1464.8246 0.0000 0.0000 1732.3306 -7426.5144 297.8300 -9158.8450 -7398.7626 298.6237 326.3562 414.4771 29961.5700 7.9568 68.3925
ENERGY: 1200000 5.0937 18.3196 22.4340 0.0000 -10469.9184 1409.7251 0.0000 0.0000 1777.7323 -7236.6136 305.6357 -9014.3459 -7383.5257 298.0760 -205.6991 -139.1733 30548.8851 -51.8994 2.3771
ENERGY: 1500000 3.5183 10.1235 18.2873 0.0000 -10489.8295 1308.9880 0.0000 0.0000 1736.2636 -7412.6487 298.5062 -9148.9123 -7381.8590 298.8376 -721.0528 -600.5580 29791.9136 -100.2386 -36.7716
TCL: Running FEP window   7: Lambda1 0.6999999999999997 Lambda2 0.6499999999999997 [dLambda -0.050000000000000044]
TCL: Setting parameter firsttimestep to 0
TCL: Setting parameter alchLambda to 0.6999999999999997
Info: NONBONDED TABLE R-SQUARED SPACING: 0.0625
Info: NONBONDED TABLE SIZE: 705 POINTS
TCL: Setting parameter alchLambda2 to 0.6499999999999997
Info: NONBONDED TABLE R-SQUARED SPACING: 0.0625
Info: NONBONDED TABLE SIZE: 705 POINTS
TCL: Running for 1500000 steps
ETITLE: TS BOND ANGLE DIHED IMPRP ELECT VDW BOUNDARY MISC KINETIC TOTAL TEMP POTENTIAL TOTALAVG TEMPAVG PRESSURE GPRESSURE VOLUME PRESSAVG GPRESSAVG
ENERGY: 0 3.5183 10.1235 18.2873 0.0000 -10488.8658 1310.0269 0.0000 0.0000 1735.4079 -7411.5018 298.3591 -9146.9097 -7411.5018 298.3591 -700.2927 -604.6138 29791.9136 -700.2927 -604.6138
ENERGY: 300000 9.6161 15.2588 20.7151 0.0000 -10515.2105 1340.0740 0.0000 0.0000 1750.9419 -7378.6045 301.0297 -9129.5464 -7419.4136 298.4271 -905.0718 -861.4172 30115.1711 -549.6498 -498.4859
ENERGY: 600000 4.7762 15.2763 16.4704 0.0000 -10674.0630 1450.6996 0.0000 0.0000 1759.4078 -7427.4328 302.4852 -9186.8405 -7393.5083 299.9391 429.4467 472.4694 29811.6524 -239.5265 -192.1940
ENERGY: 900000 4.0004 18.4272 18.5486 0.0000 -10510.6313 1378.5647 0.0000 0.0000 1748.0013 -7343.0892 300.5242 -9091.0905 -7379.6224 300.9744 -291.1458 -221.3178 30252.6114 -50.6695 -3.8160
ENERGY: 1200000 6.6338 13.3547 19.4722 0.0000 -10703.5937 1451.1741 0.0000 0.0000 1741.4659 -7471.4929 299.4006 -9212.9589 -7393.6275 300.4322 -9.5332 97.0266 29597.1400 -49.6756 5.7531
ENERGY: 1500000 7.8165 11.5343 23.5075 0.0000 -10478.3207 1319.5665 0.0000 0.0000 1742.0837 -7373.8123 299.5068 -9115.8959 -7387.3189 300.8359 -528.9038 -569.8424 29867.6709 -84.0259 -36.4243
TCL: Running FEP window   8: Lambda1 0.6499999999999997 Lambda2 0.5999999999999996 [dLambda -0.050000000000000044]
TCL: Setting parameter firsttimestep to 0
TCL: Setting parameter alchLambda to 0.6499999999999997
Info: NONBONDED TABLE R-SQUARED SPACING: 0.0625
Info: NONBONDED TABLE SIZE: 705 POINTS
TCL: Setting parameter alchLambda2 to 0.5999999999999996
Info: NONBONDED TABLE R-SQUARED SPACING: 0.0625
Info: NONBONDED TABLE SIZE: 705 POINTS
TCL: Running for 1500000 steps
ETITLE: TS BOND ANGLE DIHED IMPRP ELECT VDW BOUNDARY MISC KINETIC TOTAL TEMP POTENTIAL TOTALAVG TEMPAVG PRESSURE GPRESSURE VOLUME PRESSAVG GPRESSAVG
ENERGY: 0 7.8165 11.5343 23.5075 0.0000 -10477.0369 1319.9358 0.0000 0.0000 1741.2444 -7372.9985 299.3625 -9114.2429 -7372.9985 299.3625 -634.2860 -577.3983 29867.6709 -634.2860 -577.3983
ENERGY: 300000 3.5710 17.9085 20.9853 0.0000 -10823.5085 1544.6339 0.0000 0.0000 1757.2114 -7479.1984 302.1076 -9236.4098 -7411.8026 301.7656 821.6112 880.0460 29615.5995 361.2778 423.0217
ENERGY: 600000 6.6702 9.2261 25.9087 0.0000 -10584.9531 1432.7168 0.0000 0.0000 1690.2414 -7420.1899 290.5938 -9110.4314 -7412.3302 300.8122 216.8836 255.4992 29936.1465 69.1011 131.2411
ENERGY: 900000 3.5193 16.1284 18.8306 0.0000 -10526.0758 1432.9216 0.0000 0.0000 1728.0858 -7326.5901 297.1002 -9054.6759 -7397.3481 299.3777 321.4531 375.2086 30398.3020 65.4715 123.7820
ENERGY: 1200000 9.2608 13.4508 19.7780 0.0000 -10493.7795 1377.3182 0.0000 0.0000 1770.6779 -7303.2939 304.4228 -9073.9718 -7391.5144 300.4555 -54.0424 -41.2366 29773.7314 33.5791 90.3177
ENERGY: 1500000 10.8330 10.5307 19.8325 0.0000 -10509.5558 1348.5845 0.0000 0.0000 1735.2369 -7384.5381 298.3297 -9119.7750 -7398.6816 300.5117 -482.1348 -446.7318 29740.9651 15.2277 64.3319
TCL: Running FEP window   9: Lambda1 0.5999999999999996 Lambda2 0.5499999999999996 [dLambda -0.050000000000000044]
TCL: Setting parameter firsttimestep to 0
TCL: Setting parameter alchLambda to 0.5999999999999996
Info: NONBONDED TABLE R-SQUARED SPACING: 0.0625
Info: NONBONDED TABLE SIZE: 705 POINTS
TCL: Setting parameter alchLambda2 to 0.5499999999999996
Info: NONBONDED TABLE R-SQUARED SPACING: 0.0625
Info: NONBONDED TABLE SIZE: 705 POINTS
TCL: Running for 1500000 steps
ETITLE: TS BOND ANGLE DIHED IMPRP ELECT VDW BOUNDARY MISC KINETIC TOTAL TEMP POTENTIAL TOTALAVG TEMPAVG PRESSURE GPRESSURE VOLUME PRESSAVG GPRESSAVG
ENERGY: 0 10.8330 10.5307 19.8325 0.0000 -10508.2469 1349.0589 0.0000 0.0000 1734.3526 -7383.6391 298.1776 -9117.9917 -7383.6391 298.1776 -549.0898 -457.5766 29740.9651 -549.0898 -457.5766
ENERGY: 300000 4.9032 13.4631 19.6424 0.0000 -10492.0442 1378.6408 0.0000 0.0000 1710.2201 -7365.1746 294.0287 -9075.3947 -7372.6531 298.8039 -412.7175 -378.5674 30430.7980 -297.2569 -235.2365
ENERGY: 600000 8.8498 13.3584 19.9247 0.0000 -10440.4152 1351.9807 0.0000 0.0000 1707.4316 -7338.8700 293.5492 -9046.3016 -7343.4079 299.5087 -624.0022 -600.2692 30634.0614 -201.3240 -131.7766
ENERGY: 900000 7.8349 23.2423 21.6802 0.0000 -10477.5532 1325.5262 0.0000 0.0000 1761.4273 -7337.8423 302.8324 -9099.2696 -7353.5912 299.5678 -518.6200 -368.7247 30052.5282 -113.0316 -32.0189
ENERGY: 1200000 8.8224 15.9242 24.0696 0.0000 -10721.7835 1435.1309 0.0000 0.0000 1730.9950 -7506.8414 297.6004 -9237.8364 -7362.3590 299.3974 -65.2644 -50.6943 29828.8503 -75.1887 -3.8635
ENERGY: 1500000 4.8965 11.6973 22.1372 0.0000 -10517.8445 1359.9253 0.0000 0.0000 1719.5865 -7399.6017 295.6390 -9119.1882 -7375.6586 299.0324 -432.4029 -413.9378 30502.8916 -138.1985 -70.1824
TCL: Running FEP window  10: Lambda1 0.5499999999999996 Lambda2 0.4999999999999996 [dLambda -0.04999999999999999]
TCL: Setting parameter firsttimestep to 0
TCL: Setting parameter alchLambda to 0.5499999999999996
Info: NONBONDED TABLE R-SQUARED SPACING: 0.0625
Info: NONBONDED TABLE SIZE: 705 POINTS
TCL: Setting parameter alchLambda2 to 0.4999999999999996
Info: NONBONDED TABLE R-SQUARED SPACING: 0.0625
Info: NONBONDED TABLE SIZE: 705 POINTS
TCL: Running for 1500000 steps
ETITLE: TS BOND ANGLE DIHED IMPRP ELECT VDW BOUNDARY MISC KINETIC TOTAL TEMP POTENTIAL TOTALAVG TEMPAVG PRESSURE GPRESSURE VOLUME PRESSAVG GPRESSAVG
ENERGY: 0 4.8965 11.6973 22.1372 0.0000 -10516.8354 1360.1031 0.0000 0.0000 1718.7494 -7399.2519 295.4951 -9118.0013 -7399.2519 295.4951 -507.7647 -427.2050 30502.8916 -507.7647 -427.2050
ENERGY: 300000 4.9679 12.2832 18.6231 0.0000 -10640.6805 1423.1045 0.0000 0.0000 1748.4546 -7433.2472 300.6021 -9181.7018 -7370.4413 300.2903 -211.4680 -161.7817 29947.9637 -349.8135 -313.0777
ENERGY: 600000 6.4959 11.9000 16.9290 0.0000 -10590.0952 1401.5899 0.0000 0.0000 1740.6281 -7412.5523 299.2565 -9153.1804 -7384.9739 299.5861 -478.1010 -444.2949 30118.5929 -151.4559 -99.3509
ENERGY: 900000 7.1787 10.1507 18.0510 0.0000 -10458.2316 1333.9253 0.0000 0.0000 1763.5587 -7325.3671 303.1989 -9088.9258 -7362.2173 300.8253 -541.1525 -515.2556 30312.3809 -224.8296 -167.9335
ENERGY: 1200000 9.8705 12.8696 19.8265 0.0000 -10527.9980 1370.5659 0.0000 0.0000 1758.9324 -7355.9330 302.4035 -9114.8654 -7354.3428 301.5910 -412.3316 -363.9751 29588.2608 -359.8698 -298.1179
ENERGY: 1500000 4.7060 8.1372 16.3562 0.0000 -10579.2744 1444.3503 0.0000 0.0000 1762.2579 -7343.4666 302.9752 -9105.7245 -7362.9256 301.4164 393.3841 412.7540 30143.3546 -296.5003 -232.4215
TCL: Running FEP window  11: Lambda1 0.4999999999999996 Lambda2 0.4499999999999996 [dLambda -0.04999999999999999]
TCL: Setting parameter firsttimestep to 0
TCL: Setting parameter alchLambda to 0.4999999999999996
Info: NONBONDED TABLE R-SQUARED SPACING: 0.0625
Info: NONBONDED TABLE SIZE: 705 POINTS
TCL: Setting parameter alchLambda2 to 0.4499999999999996
Info: NONBONDED TABLE R-SQUARED SPACING: 0.0625
Info: NONBONDED TABLE SIZE: 705 POINTS
TCL: Running for 1500000 steps
ETITLE: TS BOND ANGLE DIHED IMPRP ELECT VDW BOUNDARY MISC KINETIC TOTAL TEMP POTENTIAL TOTALAVG TEMPAVG PRESSURE GPRESSURE VOLUME PRESSAVG GPRESSAVG
ENERGY: 0 4.7060 8.1372 16.3562 0.0000 -10579.3749 1445.2835 0.0000 0.0000 1761.3581 -7343.5338 302.8205 -9104.8919 -7343.5338 302.8205 319.9135 406.7253 30143.3546 319.9135 406.7253
ENERGY: 300000 7.3865 16.1239 15.8293 0.0000 -10581.0622 1453.9541 0.0000 0.0000 1686.2730 -7401.4954 289.9116 -9087.7684 -7396.8132 294.5549 120.3088 206.2044 30110.3791 -97.8953 -38.1673
ENERGY: 600000 5.1835 10.0951 18.0713 0.0000 -10587.2835 1492.3745 0.0000 0.0000 1818.6512 -7242.9079 312.6706 -9061.5591 -7381.1161 297.9386 795.6212 857.2356 29866.1924 36.0370 93.1995
ENERGY: 900000 5.4154 12.0996 21.3446 0.0000 -10378.2887 1268.9087 0.0000 0.0000 1710.6942 -7359.8262 294.1102 -9070.5204 -7392.6858 296.2815 -1396.7330 -1352.9410 30022.5172 -91.0802 -43.4478
ENERGY: 1200000 7.3985 9.5656 21.2580 0.0000 -10577.2325 1401.4113 0.0000 0.0000 1758.4624 -7379.1368 302.3227 -9137.5992 -7405.7910 296.0693 -87.3233 -17.2325 29753.8708 -73.5156 -19.1127
ENERGY: 1500000 3.7998 13.5046 20.2352 0.0000 -10473.5239 1365.2264 0.0000 0.0000 1770.9332 -7299.8248 304.4667 -9070.7579 -7404.5101 296.7889 -297.8701 -185.4952 30021.1202 -47.0128 14.6865
TCL: Running FEP window  12: Lambda1 0.4499999999999996 Lambda2 0.39999999999999963 [dLambda -0.04999999999999999]
TCL: Setting parameter firsttimestep to 0
TCL: Setting parameter alchLambda to 0.4499999999999996
Info: NONBONDED TABLE R-SQUARED SPACING: 0.0625
Info: NONBONDED TABLE SIZE: 705 POINTS
TCL: Setting parameter alchLambda2 to 0.39999999999999963
Info: NONBONDED TABLE R-SQUARED SPACING: 0.0625
Info: NONBONDED TABLE SIZE: 705 POINTS
TCL: Running for 1500000 steps
ETITLE: TS BOND ANGLE DIHED IMPRP ELECT VDW BOUNDARY MISC KINETIC TOTAL TEMP POTENTIAL TOTALAVG TEMPAVG PRESSURE GPRESSURE VOLUME PRESSAVG GPRESSAVG
ENERGY: 0 3.7998 13.5046 20.2352 0.0000 -10473.5232 1365.3948 0.0000 0.0000 1770.0542 -7300.5346 304.3156 -9070.5888 -7300.5346 304.3156 -281.0988 -197.1565 30021.1202 -281.0988 -197.1565
ENERGY: 300000 6.5987 14.5256 15.4015 0.0000 -10716.8587 1516.8556 0.0000 0.0000 1731.6336 -7431.8437 297.7102 -9163.4773 -7347.3357 303.2539 916.3539 947.5012 29583.5459 168.0915 219.8128
ENERGY: 600000 4.0934 15.0187 20.2607 0.0000 -10649.7460 1391.6720 0.0000 0.0000 1752.5266 -7466.1746 301.3022 -9218.7012 -7366.7438 302.2527 -287.3097 -250.2008 29697.1651 47.7585 99.0201
ENERGY: 900000 4.6232 9.4106 21.0020 0.0000 -10653.9239 1453.1138 0.0000 0.0000 1695.7150 -7470.0593 291.5349 -9165.7743 -7370.8278 301.7409 117.5786 153.8336 30032.1270 20.5442 88.2446
ENERGY: 1200000 5.1783 13.3633 19.0207 0.0000 -10707.7802 1461.6150 0.0000 0.0000 1729.5845 -7479.0183 297.3579 -9208.6029 -7378.3366 301.0890 20.6295 74.1964 29763.8824 -50.6038 24.3456
ENERGY: 1500000 8.8222 11.0703 21.2511 0.0000 -10492.5444 1368.2746 0.0000 0.0000 1718.4321 -7364.6941 295.4405 -9083.1262 -7381.8836 300.8287 -763.8608 -734.7987 30556.4608 -35.0799 37.1522
TCL: Running FEP window  13: Lambda1 0.39999999999999963 Lambda2 0.34999999999999964 [dLambda -0.04999999999999999]
TCL: Setting parameter firsttimestep to 0
TCL: Setting parameter alchLambda to 0.39999999999999963
Info: NONBONDED TABLE R-SQUARED SPACING: 0.0625
Info: NONBONDED TABLE SIZE: 705 POINTS
TCL: Setting parameter alchLambda2 to 0.34999999999999964
Info: NONBONDED TABLE R-SQUARED SPACING: 0.0625
Info: NONBONDED TABLE SIZE: 705 POINTS
TCL: Running for 1500000 steps
ETITLE: TS BOND ANGLE DIHED IMPRP ELECT VDW BOUNDARY MISC KINETIC TOTAL TEMP POTENTIAL TOTALAVG TEMPAVG PRESSURE GPRESSURE VOLUME PRESSAVG GPRESSAVG
ENERGY: 0 8.8222 11.0703 21.2511 0.0000 -10492.5453 1369.2666 0.0000 0.0000 1717.5944 -7364.5406 295.2965 -9082.1351 -7364.5406 295.2965 -817.2484 -737.7253 30556.4608 -817.2484 -737.7253
ENERGY: 300000 2.8968 16.4130 21.5981 0.0000 -10615.2670 1403.2630 0.0000 0.0000 1732.3896 -7438.7065 297.8401 -9171.0961 -7370.0504 300.1520 -17.4863 9.8790 29704.2638 89.9212 135.8747
ENERGY: 600000 5.1457 13.0059 20.8503 0.0000 -10633.1640 1428.6294 0.0000 0.0000 1736.4436 -7429.0892 298.5371 -9165.5328 -7377.3754 300.7836 -70.3057 36.4313 29639.7993 93.3749 151.7594
ENERGY: 900000 3.1799 12.1558 24.4097 0.0000 -10451.3665 1324.3162 0.0000 0.0000 1820.4272 -7266.8777 312.9760 -9087.3049 -7360.2869 301.8295 -767.3704 -662.9996 30077.6445 47.5206 108.8341
ENERGY: 1200000 2.5837 12.3733 20.9549 0.0000 -10638.9192 1459.9811 0.0000 0.0000 1728.0887 -7414.9373 297.1007 -9143.0261 -7362.7399 301.2030 291.2999 324.2753 30104.4286 67.5583 120.4122
ENERGY: 1500000 5.8574 11.3512 19.3068 0.0000 -10677.0393 1469.7362 0.0000 0.0000 1756.6263 -7414.1614 302.0070 -9170.7878 -7374.3523 300.5358 255.7723 261.3232 29964.6031 68.8879 119.3492
TCL: Running FEP window  14: Lambda1 0.34999999999999964 Lambda2 0.29999999999999966 [dLambda -0.04999999999999999]
TCL: Setting parameter firsttimestep to 0
TCL: Setting parameter alchLambda to 0.34999999999999964
Info: NONBONDED TABLE R-SQUARED SPACING: 0.0625
Info: NONBONDED TABLE SIZE: 705 POINTS
TCL: Setting parameter alchLambda2 to 0.29999999999999966
Info: NONBONDED TABLE R-SQUARED SPACING: 0.0625
Info: NONBONDED TABLE SIZE: 705 POINTS
TCL: Running for 1500000 steps
ETITLE: TS BOND ANGLE DIHED IMPRP ELECT VDW BOUNDARY MISC KINETIC TOTAL TEMP POTENTIAL TOTALAVG TEMPAVG PRESSURE GPRESSURE VOLUME PRESSAVG GPRESSAVG
ENERGY: 0 5.8574 11.3512 19.3068 0.0000 -10677.0394 1470.2815 0.0000 0.0000 1755.7239 -7414.5185 301.8519 -9170.2424 -7414.5185 301.8519 169.4541 256.3338 29964.6031 169.4541 256.3338
ENERGY: 300000 4.7796 10.0655 18.1113 0.0000 -10595.8486 1410.8907 0.0000 0.0000 1744.0171 -7407.9843 299.8392 -9152.0014 -7428.3169 298.1250 -192.2751 -162.3151 29854.7587 -91.3061 -23.9752
ENERGY: 600000 7.2079 14.2075 22.2168 0.0000 -10614.8898 1464.9412 0.0000 0.0000 1737.6802 -7368.6362 298.7497 -9106.3164 -7391.3151 300.0783 204.8590 257.3399 30125.1940 110.2894 160.9086
ENERGY: 900000 3.7837 17.6555 28.4272 0.0000 -10490.2965 1355.4992 0.0000 0.0000 1748.2172 -7336.7137 300.5613 -9084.9309 -7391.7004 299.6231 -450.8589 -363.0534 30189.2692 -98.5385 -44.1085
ENERGY: 1200000 4.5799 8.9345 22.2128 0.0000 -10686.4832 1517.0357 0.0000 0.0000 1745.8854 -7387.8349 300.1604 -9133.7203 -7393.4238 299.6714 914.0206 981.8193 29797.4198 -17.1807 44.1397
ENERGY: 1500000 7.9339 17.4355 22.0308 0.0000 -10613.9788 1528.0256 0.0000 0.0000 1746.4685 -7292.0846 300.2606 -9038.5531 -7384.2176 299.8570 715.3830 804.6059 30131.3469 7.8337 71.1514
TCL: Running FEP window  15: Lambda1 0.29999999999999966 Lambda2 0.24999999999999967 [dLambda -0.04999999999999999]
TCL: Setting parameter firsttimestep to 0
TCL: Setting parameter alchLambda to 0.29999999999999966
Info: NONBONDED TABLE R-SQUARED SPACING: 0.0625
Info: NONBONDED TABLE SIZE: 705 POINTS
TCL: Setting parameter alchLambda2 to 0.24999999999999967
Info: NONBONDED TABLE R-SQUARED SPACING: 0.0625
Info: NONBONDED TABLE SIZE: 705 POINTS
TCL: Running for 1500000 steps
ETITLE: TS BOND ANGLE DIHED IMPRP ELECT VDW BOUNDARY MISC KINETIC TOTAL TEMP POTENTIAL TOTALAVG TEMPAVG PRESSURE GPRESSURE VOLUME PRESSAVG GPRESSAVG
ENERGY: 0 7.9339 17.4354 22.0308 0.0000 -10613.9788 1528.7782 0.0000 0.0000 1745.6354 -7292.1650 300.1174 -9037.8005 -7292.1650 300.1174 730.2808 803.9618 30131.3469 730.2808 803.9618
ENERGY: 300000 6.9936 13.0802 20.7373 0.0000 -10654.6263 1489.3394 0.0000 0.0000 1725.9143 -7398.5615 296.7269 -9124.4758 -7341.9152 297.2677 702.1393 752.9569 29742.6776 268.7869 320.5491
ENERGY: 600000 4.0640 17.9621 16.5443 0.0000 -10574.3969 1400.5765 0.0000 0.0000 1721.6402 -7413.6098 295.9921 -9135.2500 -7346.4046 298.1367 -354.8412 -288.2816 30187.3418 224.7736 282.2153
ENERGY: 900000 6.9567 12.8737 18.4911 0.0000 -10418.6382 1310.4470 0.0000 0.0000 1776.9999 -7292.8699 305.5097 -9069.8698 -7336.7342 299.8285 -769.4580 -710.6637 30363.9512 123.4121 178.1415
ENERGY: 1200000 5.7579 12.7955 19.6357 0.0000 -10472.4435 1348.7382 0.0000 0.0000 1693.1833 -7392.3329 291.0996 -9085.5162 -7342.5678 299.7148 -347.6078 -308.8255 29858.1707 51.0590 106.8250
ENERGY: 1500000 4.3156 10.7443 18.8318 0.0000 -10547.1253 1365.7377 0.0000 0.0000 1773.5529 -7373.9430 304.9171 -9147.4959 -7356.7818 299.9256 -350.4354 -256.1874 29827.2096 20.5687 76.9450
TCL: Running FEP window  16: Lambda1 0.24999999999999967 Lambda2 0.19999999999999968 [dLambda -0.04999999999999999]
TCL: Setting parameter firsttimestep to 0
TCL: Setting parameter alchLambda to 0.24999999999999967
Info: NONBONDED TABLE R-SQUARED SPACING: 0.0625
Info: NONBONDED TABLE SIZE: 705 POINTS
TCL: Setting parameter alchLambda2 to 0.19999999999999968
Info: NONBONDED TABLE R-SQUARED SPACING: 0.0625
Info: NONBONDED TABLE SIZE: 705 POINTS
TCL: Running for 1500000 steps
ETITLE: TS BOND ANGLE DIHED IMPRP ELECT VDW BOUNDARY MISC KINETIC TOTAL TEMP POTENTIAL TOTALAVG TEMPAVG PRESSURE GPRESSURE VOLUME PRESSAVG GPRESSAVG
ENERGY: 0 4.3156 10.7443 18.8318 0.0000 -10547.1261 1366.1605 0.0000 0.0000 1772.7130 -7374.3609 304.7727 -9147.0739 -7374.3609 304.7727 -358.7458 -264.7138 29827.2096 -358.7458 -264.7138
ENERGY: 300000 11.4303 12.7208 19.5342 0.0000 -10500.9974 1337.7642 0.0000 0.0000 1780.7679 -7338.7800 306.1576 -9119.5478 -7346.1659 304.8296 -979.6601 -922.6442 29810.5948 21.0085 85.3390
ENERGY: 600000 7.9348 18.3996 19.4099 0.0000 -10556.5024 1342.8957 0.0000 0.0000 1737.1221 -7430.7403 298.6538 -9167.8624 -7370.6149 302.6513 -501.7780 -404.6416 29529.3556 -141.8234 -72.4199
ENERGY: 900000 7.6775 13.6339 17.5962 0.0000 -10673.9633 1471.9539 0.0000 0.0000 1762.6297 -7400.4721 303.0392 -9163.1017 -7366.1744 302.7206 -101.2095 -42.9705 30022.8734 -138.9157 -78.9862
ENERGY: 1200000 4.0384 17.3289 19.1901 0.0000 -10640.9468 1445.7086 0.0000 0.0000 1707.2454 -7447.4354 293.5172 -9154.6808 -7372.4911 301.0313 62.0864 105.1496 29735.2006 -150.5743 -87.8739
ENERGY: 1500000 5.2143 14.9555 23.1070 0.0000 -10596.2079 1445.6573 0.0000 0.0000 1732.7744 -7374.4994 297.9063 -9107.2738 -7371.9308 299.5861 113.5966 176.8369 30053.1944 -126.0053 -61.3973
TCL: Running FEP window  17: Lambda1 0.19999999999999968 Lambda2 0.1499999999999997 [dLambda -0.04999999999999999]
TCL: Setting parameter firsttimestep to 0
TCL: Setting parameter alchLambda to 0.19999999999999968
Info: NONBONDED TABLE R-SQUARED SPACING: 0.0625
Info: NONBONDED TABLE SIZE: 705 POINTS
TCL: Setting parameter alchLambda2 to 0.1499999999999997
Info: NONBONDED TABLE R-SQUARED SPACING: 0.0625
Info: NONBONDED TABLE SIZE: 705 POINTS
TCL: Running for 1500000 steps
ETITLE: TS BOND ANGLE DIHED IMPRP ELECT VDW BOUNDARY MISC KINETIC TOTAL TEMP POTENTIAL TOTALAVG TEMPAVG PRESSURE GPRESSURE VOLUME PRESSAVG GPRESSAVG
ENERGY: 0 5.2143 14.9555 23.1070 0.0000 -10596.2075 1445.0579 0.0000 0.0000 1731.8858 -7375.9871 297.7535 -9107.8729 -7375.9871 297.7535 86.6636 163.9824 30053.1944 86.6636 163.9824
ENERGY: 300000 7.1596 15.1021 17.8605 0.0000 -10546.4312 1443.3357 0.0000 0.0000 1760.9806 -7301.9927 302.7556 -9062.9733 -7382.3547 298.7230 626.3159 600.7584 29552.9708 126.9546 147.4119
ENERGY: 600000 6.9037 13.7702 19.8816 0.0000 -10589.8450 1406.5093 0.0000 0.0000 1733.8634 -7408.9167 298.0935 -9142.7801 -7372.9559 299.3941 121.4800 190.0263 29529.6055 193.0062 231.3680
ENERGY: 900000 9.6183 10.9597 18.8868 0.0000 -10535.3720 1406.3916 0.0000 0.0000 1686.9342 -7402.5814 290.0252 -9089.5156 -7367.9679 299.3844 13.0479 67.3456 29684.3266 43.4792 83.1652
ENERGY: 1200000 5.4273 11.7127 18.6672 0.0000 -10660.7901 1471.8413 0.0000 0.0000 1759.1514 -7393.9902 302.4412 -9153.1416 -7376.9987 297.9477 156.9675 174.8073 30289.2915 104.0535 149.5495
ENERGY: 1500000 4.1839 14.7909 20.8011 0.0000 -10649.4610 1472.8272 0.0000 0.0000 1735.8700 -7400.9879 298.4385 -9136.8579 -7375.6323 298.5356 499.3718 524.8853 29651.7145 103.3481 147.9046
TCL: Running FEP window  18: Lambda1 0.1499999999999997 Lambda2 0.09999999999999969 [dLambda -0.05 ]
TCL: Setting parameter firsttimestep to 0
TCL: Setting parameter alchLambda to 0.1499999999999997
Info: NONBONDED TABLE R-SQUARED SPACING: 0.0625
Info: NONBONDED TABLE SIZE: 705 POINTS
TCL: Setting parameter alchLambda2 to 0.09999999999999969
Info: NONBONDED TABLE R-SQUARED SPACING: 0.0625
Info: NONBONDED TABLE SIZE: 705 POINTS
TCL: Running for 1500000 steps
ETITLE: TS BOND ANGLE DIHED IMPRP ELECT VDW BOUNDARY MISC KINETIC TOTAL TEMP POTENTIAL TOTALAVG TEMPAVG PRESSURE GPRESSURE VOLUME PRESSAVG GPRESSAVG
ENERGY: 0 4.1839 14.7909 20.8011 0.0000 -10649.4612 1472.7406 0.0000 0.0000 1734.9842 -7401.9604 298.2862 -9136.9447 -7401.9604 298.2862 431.9478 518.5676 29651.7145 431.9478 518.5676
ENERGY: 300000 4.7024 12.8848 20.0742 0.0000 -10428.7262 1306.1258 0.0000 0.0000 1743.3261 -7341.6128 299.7204 -9084.9389 -7392.7614 298.4951 -797.3561 -775.5798 29956.3033 -116.2745 -55.3019
ENERGY: 600000 4.5262 14.6104 22.7258 0.0000 -10633.9535 1483.8747 0.0000 0.0000 1754.8509 -7353.3653 301.7018 -9108.2163 -7386.8296 299.3960 454.5083 517.5286 30291.3041 2.4790 60.4254
ENERGY: 900000 4.1637 13.0789 19.1803 0.0000 -10516.7896 1383.1557 0.0000 0.0000 1719.7622 -7377.4488 295.6692 -9097.2110 -7391.4168 298.9917 239.1588 288.5571 29210.3627 -76.4296 -6.4304
ENERGY: 1200000 6.4142 10.9735 19.9621 0.0000 -10593.2552 1414.3552 0.0000 0.0000 1695.6763 -7445.8740 291.5282 -9141.5503 -7395.2701 298.4540 -197.6185 -150.8916 29919.5330 -46.0679 20.1912
ENERGY: 1500000 3.5652 9.8061 27.2001 0.0000 -10611.5430 1380.6538 0.0000 0.0000 1743.6121 -7446.7056 299.7696 -9190.3177 -7403.0423 297.8998 -497.4971 -396.4667 29812.4958 -85.2727 -17.9450
TCL: Running FEP window  19: Lambda1 0.09999999999999969 Lambda2 0.049999999999999684 [dLambda -0.05 ]
TCL: Setting parameter firsttimestep to 0
TCL: Setting parameter alchLambda to 0.09999999999999969
Info: NONBONDED TABLE R-SQUARED SPACING: 0.0625
Info: NONBONDED TABLE SIZE: 705 POINTS
TCL: Setting parameter alchLambda2 to 0.049999999999999684
Info: NONBONDED TABLE R-SQUARED SPACING: 0.0625
Info: NONBONDED TABLE SIZE: 705 POINTS
TCL: Running for 1500000 steps
ETITLE: TS BOND ANGLE DIHED IMPRP ELECT VDW BOUNDARY MISC KINETIC TOTAL TEMP POTENTIAL TOTALAVG TEMPAVG PRESSURE GPRESSURE VOLUME PRESSAVG GPRESSAVG
ENERGY: 0 3.5653 9.8060 27.2001 0.0000 -10611.5428 1381.0430 0.0000 0.0000 1742.7486 -7447.1798 299.6211 -9189.9283 -7447.1798 299.6211 -495.8022 -401.3200 29812.4958 -495.8022 -401.3200
ENERGY: 300000 6.6715 17.7362 16.4466 0.0000 -10672.7024 1464.0680 0.0000 0.0000 1756.4689 -7411.3113 301.9800 -9167.7802 -7333.2889 303.2586 -14.5745 27.3282 29789.6902 63.2819 125.4523
ENERGY: 600000 4.6169 10.7435 23.9645 0.0000 -10429.7661 1313.6731 0.0000 0.0000 1740.5170 -7336.2511 299.2374 -9076.7681 -7354.1570 300.9112 -660.8444 -606.6342 29976.8148 -54.1619 7.0779
ENERGY: 900000 6.9903 12.5781 23.6731 0.0000 -10428.8414 1278.5444 0.0000 0.0000 1737.5995 -7369.4561 298.7358 -9107.0555 -7360.5851 299.6520 -1405.3432 -1299.2708 29984.2403 -217.4151 -158.9760
ENERGY: 1200000 7.6807 10.3175 22.4936 0.0000 -10507.8841 1434.6406 0.0000 0.0000 1742.9994 -7289.7523 299.6642 -9032.7517 -7344.2184 300.3436 367.7608 510.6213 29684.4539 -213.9189 -141.3041
ENERGY: 1500000 3.1735 15.4002 22.0406 0.0000 -10617.3899 1398.0921 0.0000 0.0000 1745.7049 -7432.9785 300.1294 -9178.6834 -7351.3747 300.2620 -149.1971 -101.0968 29407.3883 -283.5484 -216.1650
TCL: Running FEP window  20: Lambda1 0.049999999999999684 Lambda2 0.0    [dLambda -0.049999999999999684]
TCL: Setting parameter firsttimestep to 0
TCL: Setting parameter alchLambda to 0.049999999999999684
Info: NONBONDED TABLE R-SQUARED SPACING: 0.0625
Info: NONBONDED TABLE SIZE: 705 POINTS
TCL: Setting parameter alchLambda2 to 0.0
Info: NONBONDED TABLE R-SQUARED SPACING: 0.0625
Info: NONBONDED TABLE SIZE: 705 POINTS
TCL: Running for 1500000 steps
ETITLE: TS BOND ANGLE DIHED IMPRP ELECT VDW BOUNDARY MISC KINETIC TOTAL TEMP POTENTIAL TOTALAVG TEMPAVG PRESSURE GPRESSURE VOLUME PRESSAVG GPRESSAVG
ENERGY: 0 3.1735 15.4002 22.0406 0.0000 -10617.3908 1397.7239 0.0000 0.0000 1744.8468 -7434.2057 299.9818 -9179.0525 -7434.2057 299.9818 -187.3783 -106.7626 29407.3883 -187.3783 -106.7626
ENERGY: 300000 6.0019 13.7925 18.0322 0.0000 -10644.2828 1486.5579 0.0000 0.0000 1698.3623 -7421.5360 291.9900 -9119.8983 -7430.1398 298.1916 328.2162 404.2579 29712.1007 -78.6454 -25.0890
ENERGY: 600000 5.1085 12.8109 20.4332 0.0000 -10577.5240 1427.3761 0.0000 0.0000 1739.3944 -7372.4009 299.0444 -9111.7954 -7404.7438 297.2065 326.2937 385.3818 29663.4427 -41.8274 17.6877
ENERGY: 900000 7.7294 13.3061 21.7795 0.0000 -10459.8289 1374.2252 0.0000 0.0000 1791.8296 -7250.9591 308.0593 -9042.7887 -7377.3378 299.2528 -383.3639 -249.9427 29827.5767 29.6529 94.8041
ENERGY: 1200000 6.7186 20.4934 18.1495 0.0000 -10512.8097 1387.4843 0.0000 0.0000 1776.8876 -7303.0763 305.4904 -9079.9639 -7363.0192 300.1569 -309.4684 -273.4344 30073.0722 -43.7050 17.6275
ENERGY: 1500000 6.0773 14.5439 15.6546 0.0000 -10517.8443 1357.9218 0.0000 0.0000 1714.9536 -7408.6931 294.8425 -9123.6467 -7365.8483 299.3654 -681.9454 -635.7407 29971.1888 -128.4087 -72.3062
TCL: Exiting due to exit command.
