Info: SIMULATION PARAMETERS:
Info: TIMESTEP               2
Info: NUMBER OF STEPS        0
Info: STEPS PER CYCLE        10
Info: PERIODIC CELL BASIS 1  32.4194 0 0
Info: PERIODIC CELL BASIS 2  0 29.1147 0
Info: PERIODIC CELL BASIS 3  0 0 32.0712
Info: PERIODIC CELL CENTER   0 0 0
Info: WRAPPING WATERS AROUND PERIODIC BOUNDARIES ON OUTPUT.
Info: WRAPPING ALL CLUSTERS AROUND PERIODIC BOUNDARIES ON OUTPUT.
Info: FIRST LDB TIMESTEP     50
Info: LAST LDB TIMESTEP     -1
Info: HOM BACKGROUND SCALING 1
Info: PME BACKGROUND SCALING 1
Info: MIN ATOMS PER PATCH    40
Info: EMPTY PATCH LOAD       40 ATOMS
Info: VELOCITY FILE          mobley_5079234_equil.vel
Info: CENTER OF MASS MOVING INITIALLY? NO
Info: DIELECTRIC             1
Info: EXCLUDE                SCALED ONE-FOUR
Info: 1-4 ELECTROSTATICS SCALED BY 0.833333
Info: MODIFIED 1-4 VDW PARAMETERS WILL BE USED
Info: DCD FILENAME           mobley_5079234_prod.dcd
Info: DCD FREQUENCY          100000
Info: DCD FIRST STEP         100000
Info: DCD FILE WILL CONTAIN UNIT CELL DATA
Info: XST FILENAME           mobley_5079234_prod.xst
Info: XST FREQUENCY          100000
Info: NO VELOCITY DCD OUTPUT
Info: NO FORCE DCD OUTPUT
Info: OUTPUT FILENAME        mobley_5079234_prod
Info: BINARY OUTPUT FILES WILL BE USED
Info: RESTART FILENAME       mobley_5079234_prod.restart
Info: RESTART FREQUENCY      100000
Info: BINARY RESTART FILES WILL BE USED
Info: CUTOFF                 9
Info: PAIRLIST DISTANCE      11
Info: PAIRLIST SHRINK RATE   0.01
Info: PAIRLIST GROW RATE     0.01
Info: PAIRLIST TRIGGER       0.3
Info: PAIRLISTS PER CYCLE    2
Info: PAIRLISTS ENABLED
Info: MARGIN                 2
Info: HYDROGEN GROUP CUTOFF  2.5
Info: PATCH DIMENSION        15.5
Info: ENERGY OUTPUT STEPS    100000
Info: ENERGY EVALUATION STEPS    100000
Info: OUTPUT ENERGY PRECISION 4
Info: CROSSTERM ENERGY INCLUDED IN DIHEDRAL
Info: TIMING OUTPUT STEPS    1000000
Info: PRESSURE OUTPUT STEPS  100000
Info: ALCHEMICAL FEP ON
Info: FEP CURRENT LAMBDA VALUE     0
Info: FEP COMPARISON LAMBDA VALUE  0.05
Info: FEP INTRA-ALCHEMICAL NON-BONDED INTERACTIONS WILL BE RETAINED
Info: FEP INTRA-ALCHEMICAL BONDED INTERACTIONS WILL BE RETAINED
Info: FEP VDW SHIFTING COEFFICIENT 5
Info: FEP ELEC. ACTIVE FOR ANNIHILATED PARTICLES BETWEEN LAMBDA = 0 AND LAMBDA = 0.5
Info: FEP ELEC. ACTIVE FOR EXNIHILATED PARTICLES BETWEEN LAMBDA = 0.5 AND LAMBDA = 1
Info: FEP VDW ACTIVE FOR ANNIHILATED PARTICLES BETWEEN LAMBDA = 0 AND LAMBDA = 1
Info: FEP VDW ACTIVE FOR EXNIHILATED PARTICLES BETWEEN LAMBDA = 0 AND LAMBDA = 1
Info: FEP BOND ACTIVE FOR ANNIHILATED PARTICLES BETWEEN LAMBDA = 1 AND LAMBDA = 1
Info: FEP BOND ACTIVE FOR EXNIHILATED PARTICLES BETWEEN LAMBDA = 0 AND LAMBDA = 0
Info: LANGEVIN DYNAMICS ACTIVE
Info: LANGEVIN TEMPERATURE   300
Info: LANGEVIN USING BBK INTEGRATOR
Info: LANGEVIN DAMPING COEFFICIENT IS 1 INVERSE PS
Info: LANGEVIN DYNAMICS APPLIED TO HYDROGENS
Info: LANGEVIN PISTON PRESSURE CONTROL ACTIVE
Info:        TARGET PRESSURE IS 1.01325 BAR
Info:     OSCILLATION PERIOD IS 50 FS
Info:             DECAY TIME IS 25 FS
Info:     PISTON TEMPERATURE IS 300 K
Info:       PRESSURE CONTROL IS GROUP-BASED
Info:    INITIAL STRAIN RATE IS -0.000799888 -0.000799888 -0.000799888
Info:       CELL FLUCTUATION IS ISOTROPIC
Info: PARTICLE MESH EWALD (PME) ACTIVE
Info: PME TOLERANCE               1e-06
Info: PME EWALD COEFFICIENT       0.348832
Info: PME INTERPOLATION ORDER     4
Info: PME GRID DIMENSIONS         36 32 36
Info: PME MAXIMUM GRID SPACING    1
Info: PME CALCULATION WILL BE PERFORMED ON GPU
Info: FULL ELECTROSTATIC EVALUATION FREQUENCY      2
Info: USING VERLET I (r-RESPA) MTS SCHEME.
Info: C1 SPLITTING OF LONG RANGE ELECTROSTATICS
Info: PLACING ATOMS IN PATCHES BY HYDROGEN GROUPS
Info: RIGID BONDS TO HYDROGEN : ALL
Info:         ERROR TOLERANCE : 1e-08
Info:          MAX ITERATIONS : 100
Info: RIGID WATER USING SETTLE ALGORITHM
Info: RANDOM NUMBER SEED     1744015605
Info: USE HYDROGEN BONDS?    NO
Info: Using AMBER format force field!
Info: AMBER PARM FILE        mobley_5079234.prmtop
Info: COORDINATE PDB         mobley_5079234.pdb
Info: Exclusions will be read from PARM file!
Info: SCNB (VDW SCALING)     2
Info: USING ARITHMETIC MEAN TO COMBINE L-J SIGMA PARAMETERS
Info: BINARY COORDINATES     mobley_5079234_equil.coor
Info: SUMMARY OF PARAMETERS:
Info: 7 BONDS
Info: 8 ANGLES
Info:   8 HARMONIC
Info:   0 COSINE-BASED
Info: 9 DIHEDRAL
Info: 0 IMPROPER
Info: 0 CROSSTERM
Info: 0 VDW
Info: 21 VDW_PAIRS
Info: 0 NBTHOLE_PAIRS
Info: To read alchdata from file: mobley_5079234.pdb
Info: To read alchflag data from column: 5
Info: STRUCTURE SUMMARY:
Info: 2937 ATOMS
Info: 2936 BONDS
Info: 43 ANGLES
Info: 68 DIHEDRALS
Info: 0 IMPROPERS
Info: 0 CROSSTERMS
Info: 3036 EXCLUSIONS
Info: 2929 RIGID BONDS
Info: ALCH: 0 ATOMS TO DISAPPEAR IN FINAL STATE
Info: ALCH: 24 ATOMS TO APPEAR IN FINAL STATE
Info: 5882 DEGREES OF FREEDOM
Info: 979 HYDROGEN GROUPS
Info: 4 ATOMS IN LARGEST HYDROGEN GROUP
Info: 979 MIGRATION GROUPS
Info: 4 ATOMS IN LARGEST MIGRATION GROUP
Info: TOTAL MASS = 17609.7 amu
Info: TOTAL CHARGE = -0.000200018 e
Info: MASS DENSITY = 0.966006 g/cm^3
Info: ATOM DENSITY = 0.0970223 atoms/A^3
Info: ADDED 0 IMPLICIT EXCLUSIONS
Info: NONBONDED TABLE R-SQUARED SPACING: 0.0625
Info: NONBONDED TABLE SIZE: 705 POINTS
Info: REMOVING COM VELOCITY 0.139007 -0.00792021 -0.0921931
Info: Use 3D box decompostion in PME FFT.
Info: Updated CUDA force table with 4096 elements.
Info: Updated CUDA LJ table with 6 x 6 elements.
Info: Found 27 unique exclusion lists needing 88 bytes
TCL: Running for 1500000 steps
ETITLE: TS BOND ANGLE DIHED IMPRP ELECT VDW BOUNDARY MISC KINETIC TOTAL TEMP POTENTIAL TOTALAVG TEMPAVG PRESSURE GPRESSURE VOLUME PRESSAVG GPRESSAVG
ENERGY: 0 2.0405 9.1302 4.1965 0.0000 -10574.0008 1447.2218 0.0000 0.0000 1757.0375 -7354.3743 300.6397 -9111.4118 -7354.3743 300.6397 167.7732 257.9030 30271.3951 167.7732 257.9030
ENERGY: 300000 2.1764 16.6064 4.7788 0.0000 -10554.4903 1388.0991 0.0000 0.0000 1777.3633 -7365.4663 304.1176 -9142.8297 -7372.4007 303.4715 -403.2541 -279.1750 30146.0732 1.7326 99.4823
ENERGY: 600000 2.7151 13.4614 4.6669 0.0000 -10590.0477 1431.4917 0.0000 0.0000 1744.4447 -7393.2679 298.4850 -9137.7126 -7377.8552 302.9553 79.1066 89.9985 29889.0076 -48.9665 37.3070
ENERGY: 900000 1.4637 12.9285 6.3832 0.0000 -10597.7916 1406.1362 0.0000 0.0000 1791.8905 -7378.9896 306.6033 -9170.8800 -7384.1120 302.3143 -197.4236 -172.6554 30093.5439 -26.9021 51.4336
ENERGY: 1200000 2.5567 9.7833 7.2399 0.0000 -10666.6408 1409.5176 0.0000 0.0000 1766.5312 -7471.0121 302.2642 -9237.5433 -7400.1545 301.7400 -238.3883 -212.2170 29772.3279 -91.3311 -18.1374
ENERGY: 1500000 2.3341 7.2189 4.6232 0.0000 -10706.5967 1498.1120 0.0000 0.0000 1721.0174 -7473.2911 294.4765 -9194.3084 -7405.6556 301.0559 362.8284 452.2858 30121.5023 -88.5420 -16.4336
TCL: Running FEP window   2: Lambda1 0.05   Lambda2 0.1    [dLambda 0.05  ]
TCL: Setting parameter firsttimestep to 0
TCL: Setting parameter alchLambda to 0.05
Info: NONBONDED TABLE R-SQUARED SPACING: 0.0625
Info: NONBONDED TABLE SIZE: 705 POINTS
TCL: Setting parameter alchLambda2 to 0.1
Info: NONBONDED TABLE R-SQUARED SPACING: 0.0625
Info: NONBONDED TABLE SIZE: 705 POINTS
TCL: Running for 1500000 steps
ETITLE: TS BOND ANGLE DIHED IMPRP ELECT VDW BOUNDARY MISC KINETIC TOTAL TEMP POTENTIAL TOTALAVG TEMPAVG PRESSURE GPRESSURE VOLUME PRESSAVG GPRESSAVG
ENERGY: 0 2.3341 7.2189 4.6232 0.0000 -10706.5967 1500.3744 0.0000 0.0000 1720.1233 -7471.9228 294.3235 -9192.0461 -7471.9228 294.3235 368.4100 456.3861 30121.5023 368.4100 456.3861
ENERGY: 300000 3.2122 12.1236 4.2796 0.0000 -10361.5739 1332.1280 0.0000 0.0000 1754.7370 -7255.0934 300.2461 -9009.8304 -7346.8096 303.6592 -557.6819 -455.3596 30751.2714 -210.6484 -116.4141
ENERGY: 600000 1.6384 10.5244 5.7873 0.0000 -10504.0841 1365.8473 0.0000 0.0000 1779.9086 -7340.3782 304.5531 -9120.2868 -7347.2821 303.7914 -390.8628 -393.4726 30073.8664 25.1466 86.6478
ENERGY: 900000 2.9117 8.3596 3.3212 0.0000 -10589.9086 1397.1441 0.0000 0.0000 1704.8606 -7473.3114 291.7120 -9178.1720 -7366.3404 302.0473 -539.7298 -500.8217 30288.8015 93.1162 145.2513
ENERGY: 1200000 3.2065 6.1719 6.4181 0.0000 -10620.2148 1429.6201 0.0000 0.0000 1678.8844 -7495.9138 287.2673 -9174.7981 -7383.5014 300.8583 -397.2208 -297.9036 30237.9924 -11.9980 42.4179
ENERGY: 1500000 1.5196 11.2427 4.3926 0.0000 -10794.4992 1548.7780 0.0000 0.0000 1775.7788 -7452.7874 303.8465 -9228.5663 -7388.0400 301.9358 997.6607 1061.2720 29404.7886 115.5404 173.0002
TCL: Running FEP window   3: Lambda1 0.1    Lambda2 0.15000000000000002 [dLambda 0.05000000000000002]
TCL: Setting parameter firsttimestep to 0
TCL: Setting parameter alchLambda to 0.1
Info: NONBONDED TABLE R-SQUARED SPACING: 0.0625
Info: NONBONDED TABLE SIZE: 705 POINTS
TCL: Setting parameter alchLambda2 to 0.15000000000000002
Info: NONBONDED TABLE R-SQUARED SPACING: 0.0625
Info: NONBONDED TABLE SIZE: 705 POINTS
TCL: Running for 1500000 steps
ETITLE: TS BOND ANGLE DIHED IMPRP ELECT VDW BOUNDARY MISC KINETIC TOTAL TEMP POTENTIAL TOTALAVG TEMPAVG PRESSURE GPRESSURE VOLUME PRESSAVG GPRESSAVG
ENERGY: 0 1.5196 11.2427 4.3926 0.0000 -10794.4991 1557.2310 0.0000 0.0000 1774.8833 -7445.2298 303.6933 -9220.1131 -7445.2298 303.6933 987.9495 1077.9491 29404.7886 987.9495 1077.9491
ENERGY: 300000 1.2866 14.6539 3.8718 0.0000 -10491.5003 1342.9792 0.0000 0.0000 1747.2469 -7381.4618 298.9645 -9128.7088 -7364.2203 302.0326 -691.9356 -650.2744 30409.1930 -66.8297 -2.2820
ENERGY: 600000 3.0748 11.4574 4.7253 0.0000 -10578.8922 1408.6319 0.0000 0.0000 1722.5574 -7428.4454 294.7400 -9151.0028 -7413.4839 297.5739 37.5701 91.5744 29883.6056 -150.9283 -88.6286
ENERGY: 900000 2.5256 12.2781 3.4655 0.0000 -10629.1085 1480.9438 0.0000 0.0000 1770.5993 -7359.2962 302.9602 -9129.8955 -7405.4889 299.0724 797.6468 876.7005 29351.4665 -66.4001 -7.9741
ENERGY: 1200000 3.4826 11.1801 3.8632 0.0000 -10631.3496 1390.9202 0.0000 0.0000 1766.6555 -7455.2481 302.2854 -9221.9036 -7407.8574 299.6278 -842.9700 -764.1858 30438.2420 -87.7958 -38.1271
ENERGY: 1500000 1.3945 6.7493 4.9536 0.0000 -10659.0383 1466.3850 0.0000 0.0000 1755.3950 -7424.1609 300.3587 -9179.5559 -7410.4206 299.3573 419.5535 474.7406 29788.2578 -155.1142 -103.1816
TCL: Running FEP window   4: Lambda1 0.15000000000000002 Lambda2 0.2    [dLambda 0.04999999999999999]
TCL: Setting parameter firsttimestep to 0
TCL: Setting parameter alchLambda to 0.15000000000000002
Info: NONBONDED TABLE R-SQUARED SPACING: 0.0625
Info: NONBONDED TABLE SIZE: 705 POINTS
TCL: Setting parameter alchLambda2 to 0.2
Info: NONBONDED TABLE R-SQUARED SPACING: 0.0625
Info: NONBONDED TABLE SIZE: 705 POINTS
TCL: Running for 1500000 steps
ETITLE: TS BOND ANGLE DIHED IMPRP ELECT VDW BOUNDARY MISC KINETIC TOTAL TEMP POTENTIAL TOTALAVG TEMPAVG PRESSURE GPRESSURE VOLUME PRESSAVG GPRESSAVG
ENERGY: 0 1.3945 6.7493 4.9536 0.0000 -10659.0370 1466.7775 0.0000 0.0000 1754.5250 -7424.6371 300.2098 -9179.1621 -7424.6371 300.2098 388.2125 478.7199 29788.2578 388.2125 478.7199
ENERGY: 300000 1.1165 11.1104 5.0213 0.0000 -10563.8366 1365.2519 0.0000 0.0000 1794.7191 -7386.6174 307.0873 -9181.3364 -7435.5397 300.4296 -443.5924 -350.2457 29863.7286 -363.3875 -278.8145
ENERGY: 600000 0.3933 7.9314 5.7338 0.0000 -10572.5660 1448.2987 0.0000 0.0000 1758.2724 -7351.9364 300.8511 -9110.2088 -7398.3699 300.6814 781.1852 778.0221 29289.9348 -152.9895 -95.7541
ENERGY: 900000 2.6919 15.7273 4.8262 0.0000 -10430.4273 1303.8671 0.0000 0.0000 1758.1089 -7345.2060 300.8231 -9103.3149 -7391.1184 299.7838 -861.6364 -844.3130 29972.6814 -350.2746 -294.1496
ENERGY: 1200000 1.3831 13.9320 4.9265 0.0000 -10333.7953 1285.6597 0.0000 0.0000 1745.5774 -7282.3167 298.6788 -9027.8940 -7382.7211 299.3929 -838.9883 -769.1416 30256.5255 -257.4216 -197.9495
ENERGY: 1500000 0.9357 7.1106 5.1713 0.0000 -10690.1404 1509.7419 0.0000 0.0000 1713.6067 -7453.5742 293.2085 -9167.1808 -7386.9966 299.3820 868.3825 943.3193 29425.5164 -168.2213 -105.2272
TCL: Running FEP window   5: Lambda1 0.2    Lambda2 0.25   [dLambda 0.04999999999999999]
TCL: Setting parameter firsttimestep to 0
TCL: Setting parameter alchLambda to 0.2
Info: NONBONDED TABLE R-SQUARED SPACING: 0.0625
Info: NONBONDED TABLE SIZE: 705 POINTS
TCL: Setting parameter alchLambda2 to 0.25
Info: NONBONDED TABLE R-SQUARED SPACING: 0.0625
Info: NONBONDED TABLE SIZE: 705 POINTS
TCL: Running for 1500000 steps
ETITLE: TS BOND ANGLE DIHED IMPRP ELECT VDW BOUNDARY MISC KINETIC TOTAL TEMP POTENTIAL TOTALAVG TEMPAVG PRESSURE GPRESSURE VOLUME PRESSAVG GPRESSAVG
ENERGY: 0 0.9357 7.1106 5.1713 0.0000 -10690.1397 1511.5959 0.0000 0.0000 1712.7720 -7452.5542 293.0656 -9165.3262 -7452.5542 293.0656 867.7204 953.8781 29425.5164 867.7204 953.8781
ENERGY: 300000 1.3718 13.7329 4.4215 0.0000 -10618.3918 1413.4815 0.0000 0.0000 1812.8488 -7372.5352 310.1894 -9185.3841 -7411.5981 300.0277 -83.3688 -55.9533 30283.0550 210.4386 273.8167
ENERGY: 600000 1.3467 12.3144 4.0786 0.0000 -10574.5046 1444.1149 0.0000 0.0000 1745.0998 -7367.5503 298.5971 -9112.6501 -7405.5823 301.2765 -14.4011 -11.6822 30881.5650 262.2454 321.5493
ENERGY: 900000 3.4323 14.1624 5.6323 0.0000 -10612.7322 1425.5948 0.0000 0.0000 1706.3958 -7457.5145 291.9746 -9163.9103 -7414.0181 299.4531 -206.0992 -109.4264 29960.2712 183.4448 259.5508
ENERGY: 1200000 2.0056 11.5484 3.9162 0.0000 -10640.1795 1441.3561 0.0000 0.0000 1748.5454 -7432.8079 299.1867 -9181.3533 -7418.4575 299.7196 189.9940 238.9743 29771.4725 53.6440 116.2936
ENERGY: 1500000 1.2442 9.7826 5.7355 0.0000 -10552.1994 1419.1602 0.0000 0.0000 1776.6117 -7339.6652 303.9890 -9116.2769 -7408.4403 300.4411 311.9086 414.0278 29764.4523 80.8183 145.3721
TCL: Running FEP window   6: Lambda1 0.25   Lambda2 0.3    [dLambda 0.04999999999999999]
TCL: Setting parameter firsttimestep to 0
TCL: Setting parameter alchLambda to 0.25
Info: NONBONDED TABLE R-SQUARED SPACING: 0.0625
Info: NONBONDED TABLE SIZE: 705 POINTS
TCL: Setting parameter alchLambda2 to 0.3
Info: NONBONDED TABLE R-SQUARED SPACING: 0.0625
Info: NONBONDED TABLE SIZE: 705 POINTS
TCL: Running for 1500000 steps
ETITLE: TS BOND ANGLE DIHED IMPRP ELECT VDW BOUNDARY MISC KINETIC TOTAL TEMP POTENTIAL TOTALAVG TEMPAVG PRESSURE GPRESSURE VOLUME PRESSAVG GPRESSAVG
ENERGY: 0 1.2442 9.7826 5.7355 0.0000 -10552.1989 1419.8766 0.0000 0.0000 1775.7276 -7339.8323 303.8377 -9115.5600 -7339.8323 303.8377 341.3629 423.3379 29764.4523 341.3629 423.3379
ENERGY: 300000 2.2610 11.9330 3.9406 0.0000 -10548.0730 1392.3469 0.0000 0.0000 1673.0553 -7464.5363 286.2699 -9137.5916 -7430.7730 298.3509 -582.8878 -516.2668 30270.9195 -157.9135 -73.4141
ENERGY: 600000 2.6714 8.4422 3.8131 0.0000 -10495.5655 1396.8310 0.0000 0.0000 1705.7509 -7378.0569 291.8643 -9083.8079 -7430.6943 297.7328 81.6080 78.9510 29834.0441 -66.4897 -2.2055
ENERGY: 900000 1.9597 10.2030 4.0114 0.0000 -10682.7618 1452.4048 0.0000 0.0000 1746.0111 -7468.1718 298.7531 -9214.1829 -7434.8185 298.4466 -108.5233 -70.4632 30143.6234 -21.8029 30.5739
ENERGY: 1200000 1.0153 10.4546 3.1351 0.0000 -10556.4360 1382.2092 0.0000 0.0000 1757.1084 -7402.5135 300.6519 -9159.6219 -7427.5228 299.0270 -269.4391 -236.5172 30049.1618 -60.2285 -10.4254
ENERGY: 1500000 0.2398 9.7555 3.6524 0.0000 -10593.8205 1392.3742 0.0000 0.0000 1753.7582 -7434.0405 300.0786 -9187.7986 -7418.2195 299.6272 -241.0459 -174.7893 30005.6309 -106.2944 -56.0110
TCL: Running FEP window   7: Lambda1 0.3    Lambda2 0.35   [dLambda 0.04999999999999999]
TCL: Setting parameter firsttimestep to 0
TCL: Setting parameter alchLambda to 0.3
Info: NONBONDED TABLE R-SQUARED SPACING: 0.0625
Info: NONBONDED TABLE SIZE: 705 POINTS
TCL: Setting parameter alchLambda2 to 0.35
Info: NONBONDED TABLE R-SQUARED SPACING: 0.0625
Info: NONBONDED TABLE SIZE: 705 POINTS
TCL: Running for 1500000 steps
ETITLE: TS BOND ANGLE DIHED IMPRP ELECT VDW BOUNDARY MISC KINETIC TOTAL TEMP POTENTIAL TOTALAVG TEMPAVG PRESSURE GPRESSURE VOLUME PRESSAVG GPRESSAVG
ENERGY: 0 0.2398 9.7555 3.6524 0.0000 -10593.8204 1392.9317 0.0000 0.0000 1752.8971 -7434.3439 299.9313 -9187.2410 -7434.3439 299.9313 -246.8605 -166.2765 30005.6309 -246.8605 -166.2765
ENERGY: 300000 0.6761 13.7828 4.1348 0.0000 -10604.9518 1427.3199 0.0000 0.0000 1716.4807 -7442.5574 293.7002 -9159.0381 -7428.5686 298.2385 -28.1863 55.5338 30162.4193 -18.4269 46.2848
ENERGY: 600000 5.1883 11.1598 4.5985 0.0000 -10634.4148 1393.8588 0.0000 0.0000 1742.1581 -7477.4514 298.0938 -9219.6095 -7427.2060 298.6539 -384.6292 -337.4235 30177.5081 -42.9462 22.7814
ENERGY: 900000 2.5604 9.3132 4.8038 0.0000 -10468.2326 1354.5803 0.0000 0.0000 1754.9485 -7342.0264 300.2823 -9096.9749 -7413.3520 297.7616 -513.6323 -476.7217 30270.3143 -70.2784 -3.2262
ENERGY: 1200000 1.3674 10.9574 5.1164 0.0000 -10643.3707 1400.4339 0.0000 0.0000 1719.6474 -7505.8482 294.2421 -9225.4956 -7409.9582 298.6371 -561.0959 -496.0237 30215.0040 -19.0846 49.7311
ENERGY: 1500000 2.4192 10.4455 4.8618 0.0000 -10627.6675 1396.5251 0.0000 0.0000 1718.8084 -7494.6075 294.0985 -9213.4159 -7405.0384 298.8047 -283.3013 -227.1633 29789.8160 -50.1970 21.1559
TCL: Running FEP window   8: Lambda1 0.35   Lambda2 0.39999999999999997 [dLambda 0.04999999999999999]
TCL: Setting parameter firsttimestep to 0
TCL: Setting parameter alchLambda to 0.35
Info: NONBONDED TABLE R-SQUARED SPACING: 0.0625
Info: NONBONDED TABLE SIZE: 705 POINTS
TCL: Setting parameter alchLambda2 to 0.39999999999999997
Info: NONBONDED TABLE R-SQUARED SPACING: 0.0625
Info: NONBONDED TABLE SIZE: 705 POINTS
TCL: Running for 1500000 steps
ETITLE: TS BOND ANGLE DIHED IMPRP ELECT VDW BOUNDARY MISC KINETIC TOTAL TEMP POTENTIAL TOTALAVG TEMPAVG PRESSURE GPRESSURE VOLUME PRESSAVG GPRESSAVG
ENERGY: 0 2.4192 10.4455 4.8618 0.0000 -10627.6666 1396.9217 0.0000 0.0000 1717.9426 -7495.0758 293.9504 -9213.0184 -7495.0758 293.9504 -309.1446 -217.5537 29789.8160 -309.1446 -217.5537
ENERGY: 300000 4.3803 11.7723 3.8233 0.0000 -10691.5733 1474.2174 0.0000 0.0000 1812.1589 -7385.2211 310.0713 -9197.3800 -7423.1191 300.0063 171.6771 315.7682 30254.6381 14.5019 85.8153
ENERGY: 600000 0.9432 10.3509 3.1960 0.0000 -10462.6539 1335.0704 0.0000 0.0000 1721.9285 -7391.1649 294.6324 -9113.0934 -7427.8450 298.5771 -646.1538 -606.7969 30256.4587 -230.0475 -154.1447
ENERGY: 900000 1.6501 9.2138 4.8830 0.0000 -10516.0920 1367.1460 0.0000 0.0000 1855.7262 -7277.4728 317.5260 -9133.1990 -7400.0868 301.3697 -377.6854 -333.4271 30138.2108 -329.9001 -255.0092
ENERGY: 1200000 2.0525 10.0630 5.2261 0.0000 -10551.2751 1415.9083 0.0000 0.0000 1778.2542 -7339.7710 304.2700 -9118.0252 -7392.1493 300.4005 -288.4999 -163.2803 30654.0914 -322.2810 -249.0219
ENERGY: 1500000 2.1184 5.8269 4.4566 0.0000 -10522.0140 1444.8070 0.0000 0.0000 1744.0480 -7320.7572 298.4172 -9064.8052 -7388.9916 299.9082 175.6467 223.5480 30618.5392 -270.0886 -191.2204
TCL: Running FEP window   9: Lambda1 0.39999999999999997 Lambda2 0.44999999999999996 [dLambda 0.04999999999999999]
TCL: Setting parameter firsttimestep to 0
TCL: Setting parameter alchLambda to 0.39999999999999997
Info: NONBONDED TABLE R-SQUARED SPACING: 0.0625
Info: NONBONDED TABLE SIZE: 705 POINTS
TCL: Setting parameter alchLambda2 to 0.44999999999999996
Info: NONBONDED TABLE R-SQUARED SPACING: 0.0625
Info: NONBONDED TABLE SIZE: 705 POINTS
TCL: Running for 1500000 steps
ETITLE: TS BOND ANGLE DIHED IMPRP ELECT VDW BOUNDARY MISC KINETIC TOTAL TEMP POTENTIAL TOTALAVG TEMPAVG PRESSURE GPRESSURE VOLUME PRESSAVG GPRESSAVG
ENERGY: 0 2.1184 5.8269 4.4566 0.0000 -10522.0133 1445.0386 0.0000 0.0000 1743.1774 -7321.3954 298.2682 -9064.5728 -7321.3954 298.2682 155.9410 233.4868 30618.5392 155.9410 233.4868
ENERGY: 300000 1.3894 6.5374 4.6950 0.0000 -10679.2962 1462.2370 0.0000 0.0000 1785.6122 -7418.8252 305.5290 -9204.4374 -7353.2549 302.1517 119.0430 205.0847 30289.7819 4.2320 53.1029
ENERGY: 600000 2.0673 10.0475 3.5754 0.0000 -10481.8024 1380.9471 0.0000 0.0000 1729.0089 -7356.1562 295.8439 -9085.1651 -7367.3972 301.4665 -455.4431 -363.9492 30673.9920 -133.2234 -62.7653
ENERGY: 900000 2.6228 11.2717 3.0815 0.0000 -10493.0287 1349.3884 0.0000 0.0000 1721.2913 -7405.3729 294.5234 -9126.6643 -7374.1379 301.1255 -855.6537 -791.8009 30681.1052 -148.7633 -80.4757
ENERGY: 1200000 1.5831 14.6323 3.8563 0.0000 -10789.9983 1570.9958 0.0000 0.0000 1724.0645 -7474.8665 294.9979 -9198.9310 -7382.7145 300.9933 993.9273 1058.0301 30121.6118 6.0787 76.4142
ENERGY: 1500000 3.4400 8.6403 6.6910 0.0000 -10571.9210 1394.6036 0.0000 0.0000 1770.1359 -7388.4103 302.8810 -9158.5461 -7381.9795 300.7393 -511.6862 -453.3618 30355.4508 10.2649 76.6619
TCL: Running FEP window  10: Lambda1 0.44999999999999996 Lambda2 0.49999999999999994 [dLambda 0.04999999999999999]
TCL: Setting parameter firsttimestep to 0
TCL: Setting parameter alchLambda to 0.44999999999999996
Info: NONBONDED TABLE R-SQUARED SPACING: 0.0625
Info: NONBONDED TABLE SIZE: 705 POINTS
TCL: Setting parameter alchLambda2 to 0.49999999999999994
Info: NONBONDED TABLE R-SQUARED SPACING: 0.0625
Info: NONBONDED TABLE SIZE: 705 POINTS
TCL: Running for 1500000 steps
ETITLE: TS BOND ANGLE DIHED IMPRP ELECT VDW BOUNDARY MISC KINETIC TOTAL TEMP POTENTIAL TOTALAVG TEMPAVG PRESSURE GPRESSURE VOLUME PRESSAVG GPRESSAVG
ENERGY: 0 3.4400 8.6403 6.6910 0.0000 -10571.9200 1394.2377 0.0000 0.0000 1769.2875 -7389.6235 302.7358 -9158.9110 -7389.6235 302.7358 -530.1090 -449.9867 30355.4508 -530.1090 -449.9867
ENERGY: 300000 5.4476 11.4040 5.9299 0.0000 -10462.3011 1383.0053 0.0000 0.0000 1725.3164 -7331.1978 295.2121 -9056.5142 -7343.6269 300.2329 -210.6105 -139.4976 30371.1367 -92.1397 -22.0324
ENERGY: 600000 2.0591 11.3896 4.3010 0.0000 -10670.8680 1444.0949 0.0000 0.0000 1761.0583 -7447.9653 301.3277 -9209.0235 -7380.2369 299.9250 -70.5923 -42.2353 30085.1226 -106.5905 -40.3472
ENERGY: 900000 1.0513 8.5918 3.0509 0.0000 -10649.6985 1460.1028 0.0000 0.0000 1771.7778 -7405.1239 303.1619 -9176.9017 -7388.9936 300.2467 328.3416 402.0557 30005.5796 -191.0769 -118.5604
ENERGY: 1200000 1.3485 11.2873 3.4775 0.0000 -10590.7622 1442.0566 0.0000 0.0000 1712.8088 -7419.7834 293.0719 -9132.5922 -7395.3789 299.3908 57.9183 151.1076 30107.3200 -129.0429 -57.7827
ENERGY: 1500000 1.2597 10.4042 3.5094 0.0000 -10583.6198 1453.2911 0.0000 0.0000 1817.0885 -7298.0669 310.9148 -9115.1554 -7388.4723 299.8658 365.7649 478.2753 30014.0537 -67.7512 7.8263
TCL: Running FEP window  11: Lambda1 0.49999999999999994 Lambda2 0.5499999999999999 [dLambda 0.04999999999999999]
TCL: Setting parameter firsttimestep to 0
TCL: Setting parameter alchLambda to 0.49999999999999994
Info: NONBONDED TABLE R-SQUARED SPACING: 0.0625
Info: NONBONDED TABLE SIZE: 705 POINTS
TCL: Setting parameter alchLambda2 to 0.5499999999999999
Info: NONBONDED TABLE R-SQUARED SPACING: 0.0625
Info: NONBONDED TABLE SIZE: 705 POINTS
TCL: Running for 1500000 steps
ETITLE: TS BOND ANGLE DIHED IMPRP ELECT VDW BOUNDARY MISC KINETIC TOTAL TEMP POTENTIAL TOTALAVG TEMPAVG PRESSURE GPRESSURE VOLUME PRESSAVG GPRESSAVG
ENERGY: 0 1.2597 10.4042 3.5094 0.0000 -10583.6190 1453.2833 0.0000 0.0000 1816.2155 -7298.9468 310.7655 -9115.1623 -7298.9468 310.7655 400.2976 486.9932 30014.0537 400.2976 486.9932
ENERGY: 300000 1.5645 14.3410 4.1822 0.0000 -10628.3457 1439.3292 0.0000 0.0000 1799.8766 -7369.0521 307.9698 -9168.9287 -7381.2446 305.0148 261.4977 251.5384 29791.9833 202.9095 241.1379
ENERGY: 600000 2.6762 11.5028 4.9241 0.0000 -10673.6135 1401.9865 0.0000 0.0000 1727.0242 -7525.4998 295.5043 -9252.5240 -7412.5970 301.8216 -489.6729 -432.0021 29896.0530 104.3519 134.2470
ENERGY: 900000 2.1761 15.6850 3.7231 0.0000 -10490.9535 1343.1878 0.0000 0.0000 1750.5372 -7375.6443 299.5275 -9126.1815 -7395.5167 302.2229 -805.3950 -786.7066 30651.3057 56.6832 92.5497
ENERGY: 1200000 3.1583 7.6048 4.0128 0.0000 -10546.0982 1411.4038 0.0000 0.0000 1740.2753 -7379.6432 297.7716 -9119.9186 -7399.9561 301.1386 -228.9984 -188.4252 30622.6344 100.0188 140.1414
ENERGY: 1500000 0.7339 14.5150 4.9156 0.0000 -10601.3842 1417.4454 0.0000 0.0000 1757.3698 -7406.4045 300.6966 -9163.7743 -7400.6678 300.3701 17.7877 53.6314 30109.6626 57.3490 100.6650
TCL: Running FEP window  12: Lambda1 0.5499999999999999 Lambda2 0.6    [dLambda 0.050000000000000044]
TCL: Setting parameter firsttimestep to 0
TCL: Setting parameter alchLambda to 0.5499999999999999
Info: NONBONDED TABLE R-SQUARED SPACING: 0.0625
Info: NONBONDED TABLE SIZE: 705 POINTS
TCL: Setting parameter alchLambda2 to 0.6
Info: NONBONDED TABLE R-SQUARED SPACING: 0.0625
Info: NONBONDED TABLE SIZE: 705 POINTS
TCL: Running for 1500000 steps
ETITLE: TS BOND ANGLE DIHED IMPRP ELECT VDW BOUNDARY MISC KINETIC TOTAL TEMP POTENTIAL TOTALAVG TEMPAVG PRESSURE GPRESSURE VOLUME PRESSAVG GPRESSAVG
ENERGY: 0 0.7339 14.5151 4.9156 0.0000 -10600.9117 1417.6909 0.0000 0.0000 1756.4724 -7406.5840 300.5431 -9163.0564 -7406.5840 300.5431 -15.5776 67.2541 30109.6626 -15.5776 67.2541
ENERGY: 300000 1.5584 8.3838 6.8479 0.0000 -10613.9362 1499.4673 0.0000 0.0000 1723.7890 -7373.8897 294.9507 -9097.6787 -7404.0268 298.1298 950.3572 989.4337 30085.0029 123.2517 193.2895
ENERGY: 600000 4.5422 12.4666 5.3587 0.0000 -10574.2245 1376.7547 0.0000 0.0000 1730.4419 -7444.6604 296.0891 -9175.1023 -7397.9823 298.7143 -772.0287 -714.7211 30653.7458 -154.1469 -96.1843
ENERGY: 900000 1.7990 12.7975 7.0649 0.0000 -10572.7938 1357.5325 0.0000 0.0000 1801.4262 -7392.1738 308.2349 -9193.6000 -7389.9671 299.4892 -426.4844 -397.7741 29873.1400 -157.5607 -108.4253
ENERGY: 1200000 1.2579 13.0005 3.5989 0.0000 -10673.0095 1418.4775 0.0000 0.0000 1661.4617 -7575.2132 284.2861 -9236.6748 -7408.1201 298.3163 -408.4002 -316.5120 29974.7048 -220.0581 -159.3820
ENERGY: 1500000 1.3933 11.5371 4.8182 0.0000 -10725.0305 1445.5866 0.0000 0.0000 1711.8318 -7549.8636 292.9048 -9261.6954 -7413.4760 298.3310 -113.2878 78.0975 29839.5233 -195.8383 -124.1790
TCL: Running FEP window  13: Lambda1 0.6    Lambda2 0.65   [dLambda 0.050000000000000044]
TCL: Setting parameter firsttimestep to 0
TCL: Setting parameter alchLambda to 0.6
Info: NONBONDED TABLE R-SQUARED SPACING: 0.0625
Info: NONBONDED TABLE SIZE: 705 POINTS
TCL: Setting parameter alchLambda2 to 0.65
Info: NONBONDED TABLE R-SQUARED SPACING: 0.0625
Info: NONBONDED TABLE SIZE: 705 POINTS
TCL: Running for 1500000 steps
ETITLE: TS BOND ANGLE DIHED IMPRP ELECT VDW BOUNDARY MISC KINETIC TOTAL TEMP POTENTIAL TOTALAVG TEMPAVG PRESSURE GPRESSURE VOLUME PRESSAVG GPRESSAVG
ENERGY: 0 1.3933 11.5371 4.8182 0.0000 -10725.7711 1445.3604 0.0000 0.0000 1710.9398 -7551.7224 292.7522 -9262.6623 -7551.7224 292.7522 11.4366 84.7643 29839.5233 11.4366 84.7643
ENERGY: 300000 1.7378 9.0598 3.5388 0.0000 -10628.7117 1457.8914 0.0000 0.0000 1739.3105 -7417.1732 297.6066 -9156.4837 -7419.0856 299.6335 256.5170 331.7775 30038.2637 28.2916 102.2672
ENERGY: 600000 1.3087 13.0295 5.0768 0.0000 -10726.4546 1476.7283 0.0000 0.0000 1765.3906 -7464.9208 302.0690 -9230.3113 -7426.5539 299.0368 327.1548 364.3403 29837.6474 275.9462 334.0554
ENERGY: 900000 3.2156 14.7267 6.8621 0.0000 -10676.5379 1394.1364 0.0000 0.0000 1756.0806 -7501.5165 300.4760 -9257.5971 -7435.2945 299.3309 -486.1352 -404.0793 29875.2295 135.1482 184.9477
ENERGY: 1200000 1.9173 8.0822 4.1591 0.0000 -10678.4835 1454.5614 0.0000 0.0000 1741.3023 -7468.4612 297.9474 -9209.7635 -7426.9530 299.4120 398.5893 444.7498 29749.8349 128.6623 175.4455
ENERGY: 1500000 1.4713 11.3830 7.0231 0.0000 -10575.5885 1425.3930 0.0000 0.0000 1794.6314 -7335.6867 307.0723 -9130.3181 -7416.5563 300.0276 -85.2538 -26.9873 30705.4426 81.4992 131.4768
TCL: Running FEP window  14: Lambda1 0.65   Lambda2 0.7000000000000001 [dLambda 0.050000000000000044]
TCL: Setting parameter firsttimestep to 0
TCL: Setting parameter alchLambda to 0.65
Info: NONBONDED TABLE R-SQUARED SPACING: 0.0625
Info: NONBONDED TABLE SIZE: 705 POINTS
TCL: Setting parameter alchLambda2 to 0.7000000000000001
Info: NONBONDED TABLE R-SQUARED SPACING: 0.0625
Info: NONBONDED TABLE SIZE: 705 POINTS
TCL: Running for 1500000 steps
ETITLE: TS BOND ANGLE DIHED IMPRP ELECT VDW BOUNDARY MISC KINETIC TOTAL TEMP POTENTIAL TOTALAVG TEMPAVG PRESSURE GPRESSURE VOLUME PRESSAVG GPRESSAVG
ENERGY: 0 1.4713 11.3830 7.0231 0.0000 -10576.0662 1425.0058 0.0000 0.0000 1793.7529 -7337.4303 306.9220 -9131.1831 -7337.4303 306.9220 -102.4578 -24.5449 30705.4426 -102.4578 -24.5449
ENERGY: 300000 3.4312 12.3896 3.5130 0.0000 -10513.4400 1361.4182 0.0000 0.0000 1764.6094 -7368.0787 301.9353 -9132.6881 -7384.5095 303.0754 -318.5725 -229.1729 30146.2213 -152.9805 -102.8381
ENERGY: 600000 3.0087 7.7032 5.0189 0.0000 -10615.1793 1392.3142 0.0000 0.0000 1811.6928 -7395.4414 309.9916 -9207.1342 -7390.5638 302.1756 -409.6207 -312.6525 30116.0717 -20.0424 28.8640
ENERGY: 900000 2.7971 7.5531 6.2430 0.0000 -10520.4158 1396.3312 0.0000 0.0000 1738.9156 -7368.5757 297.5390 -9107.4914 -7394.1418 301.5817 -113.9595 -92.4964 30487.7691 -125.2165 -69.4856
ENERGY: 1200000 2.0276 11.5180 4.8200 0.0000 -10693.4948 1457.2828 0.0000 0.0000 1764.9962 -7452.8503 302.0015 -9217.8465 -7411.2542 301.4556 274.6526 307.8572 29878.5483 -134.2505 -77.8056
ENERGY: 1500000 0.3897 17.3849 5.0045 0.0000 -10666.8834 1481.5518 0.0000 0.0000 1772.2460 -7390.3065 303.2420 -9162.5525 -7406.8953 301.4184 529.0348 609.9445 30038.7486 -76.3449 -15.9663
TCL: Running FEP window  15: Lambda1 0.7000000000000001 Lambda2 0.7500000000000001 [dLambda 0.050000000000000044]
TCL: Setting parameter firsttimestep to 0
TCL: Setting parameter alchLambda to 0.7000000000000001
Info: NONBONDED TABLE R-SQUARED SPACING: 0.0625
Info: NONBONDED TABLE SIZE: 705 POINTS
TCL: Setting parameter alchLambda2 to 0.7500000000000001
Info: NONBONDED TABLE R-SQUARED SPACING: 0.0625
Info: NONBONDED TABLE SIZE: 705 POINTS
TCL: Running for 1500000 steps
ETITLE: TS BOND ANGLE DIHED IMPRP ELECT VDW BOUNDARY MISC KINETIC TOTAL TEMP POTENTIAL TOTALAVG TEMPAVG PRESSURE GPRESSURE VOLUME PRESSAVG GPRESSAVG
ENERGY: 0 0.3897 17.3849 5.0045 0.0000 -10668.4450 1481.8539 0.0000 0.0000 1771.3782 -7392.4338 303.0935 -9163.8120 -7392.4338 303.0935 550.1543 622.7935 30038.7486 550.1543 622.7935
ENERGY: 300000 2.7885 10.5465 5.7078 0.0000 -10566.9150 1412.2502 0.0000 0.0000 1755.2429 -7380.3790 300.3327 -9135.6220 -7431.7987 300.2874 34.3800 138.8060 29988.4701 407.3271 505.0796
ENERGY: 600000 1.7231 11.0387 6.1479 0.0000 -10712.3221 1477.6641 0.0000 0.0000 1773.6817 -7442.0667 303.4877 -9215.7484 -7425.9060 301.0528 194.0039 221.5554 30168.7885 223.7965 279.7469
ENERGY: 900000 7.4183 10.2160 5.6284 0.0000 -10500.5295 1343.4878 0.0000 0.0000 1785.0251 -7348.7540 305.4286 -9133.7791 -7415.7943 300.2668 -449.6835 -476.1233 30033.0174 104.2024 155.7658
ENERGY: 1200000 4.2000 11.9300 4.3964 0.0000 -10466.3039 1343.7181 0.0000 0.0000 1739.6014 -7362.4581 297.6563 -9102.0594 -7423.7663 299.2390 -514.3102 -377.0626 30299.8211 11.5780 77.9130
ENERGY: 1500000 0.6594 4.7168 3.0976 0.0000 -10573.4144 1352.5364 0.0000 0.0000 1758.9171 -7453.4873 300.9614 -9212.4044 -7426.5218 299.0692 -434.5204 -410.8962 30107.1027 6.3181 59.5045
TCL: Running FEP window  16: Lambda1 0.7500000000000001 Lambda2 0.8000000000000002 [dLambda 0.050000000000000044]
TCL: Setting parameter firsttimestep to 0
TCL: Setting parameter alchLambda to 0.7500000000000001
Info: NONBONDED TABLE R-SQUARED SPACING: 0.0625
Info: NONBONDED TABLE SIZE: 705 POINTS
TCL: Setting parameter alchLambda2 to 0.8000000000000002
Info: NONBONDED TABLE R-SQUARED SPACING: 0.0625
Info: NONBONDED TABLE SIZE: 705 POINTS
TCL: Running for 1500000 steps
ETITLE: TS BOND ANGLE DIHED IMPRP ELECT VDW BOUNDARY MISC KINETIC TOTAL TEMP POTENTIAL TOTALAVG TEMPAVG PRESSURE GPRESSURE VOLUME PRESSAVG GPRESSAVG
ENERGY: 0 0.6594 4.7168 3.0976 0.0000 -10573.5218 1352.2037 0.0000 0.0000 1758.0749 -7454.7695 300.8173 -9212.8445 -7454.7695 300.8173 -484.6032 -402.0275 30107.1027 -484.6032 -402.0275
ENERGY: 300000 2.0632 6.9731 3.2549 0.0000 -10534.7922 1378.8278 0.0000 0.0000 1820.4728 -7323.2004 311.4939 -9143.6732 -7418.2305 302.2674 -166.8831 -96.2162 30155.4288 -331.6384 -247.6707
ENERGY: 600000 1.1473 7.6116 3.9080 0.0000 -10530.7011 1382.3322 0.0000 0.0000 1770.2187 -7365.4833 302.8951 -9135.7020 -7382.6824 305.1059 -216.2403 -168.3261 30287.3985 -144.6979 -76.2260
ENERGY: 900000 1.0868 16.8118 5.0350 0.0000 -10594.5264 1382.1606 0.0000 0.0000 1773.2495 -7416.1827 303.4137 -9189.4322 -7391.9471 303.2397 -167.9509 -119.6068 29858.5523 -19.8484 46.7639
ENERGY: 1200000 3.4872 9.6862 3.0805 0.0000 -10633.8403 1428.8686 0.0000 0.0000 1696.3995 -7492.3183 290.2642 -9188.7178 -7392.1793 302.3846 167.1315 178.3418 29840.3964 60.4786 123.3426
ENERGY: 1500000 0.9853 9.2978 7.4987 0.0000 -10590.2963 1414.3515 0.0000 0.0000 1732.1260 -7426.0371 296.3772 -9158.1631 -7405.7177 300.9595 50.0873 116.2945 29791.0002 59.6150 124.6387
TCL: Running FEP window  17: Lambda1 0.8000000000000002 Lambda2 0.8500000000000002 [dLambda 0.050000000000000044]
TCL: Setting parameter firsttimestep to 0
TCL: Setting parameter alchLambda to 0.8000000000000002
Info: NONBONDED TABLE R-SQUARED SPACING: 0.0625
Info: NONBONDED TABLE SIZE: 705 POINTS
TCL: Setting parameter alchLambda2 to 0.8500000000000002
Info: NONBONDED TABLE R-SQUARED SPACING: 0.0625
Info: NONBONDED TABLE SIZE: 705 POINTS
TCL: Running for 1500000 steps
ETITLE: TS BOND ANGLE DIHED IMPRP ELECT VDW BOUNDARY MISC KINETIC TOTAL TEMP POTENTIAL TOTALAVG TEMPAVG PRESSURE GPRESSURE VOLUME PRESSAVG GPRESSAVG
ENERGY: 0 0.9853 9.2978 7.4987 0.0000 -10591.7324 1415.6667 0.0000 0.0000 1731.2176 -7427.0663 296.2218 -9158.2839 -7427.0663 296.2218 68.6489 141.4272 29791.0002 68.6489 141.4272
ENERGY: 300000 1.1941 10.0651 5.1180 0.0000 -10612.9406 1470.5576 0.0000 0.0000 1736.0818 -7389.9240 297.0541 -9126.0059 -7393.0054 299.7451 553.7215 587.9049 30230.4359 28.1445 93.4573
ENERGY: 600000 1.6936 9.1792 3.3054 0.0000 -10587.5888 1419.4256 0.0000 0.0000 1721.0284 -7432.9566 294.4784 -9153.9850 -7387.0424 298.9894 -176.7421 -140.6020 30730.7772 62.8776 106.9288
ENERGY: 900000 4.2545 10.1254 3.6074 0.0000 -10666.0607 1454.9340 0.0000 0.0000 1766.8654 -7426.2739 302.3214 -9193.1394 -7384.4982 300.7440 371.3188 466.8919 29798.5065 97.0225 137.0225
ENERGY: 1200000 1.5498 12.0899 3.2674 0.0000 -10616.3389 1421.7377 0.0000 0.0000 1798.9358 -7378.7583 307.8088 -9177.6941 -7407.8777 299.9600 -4.3988 85.8146 29892.2896 58.7697 104.3178
ENERGY: 1500000 1.0751 12.0298 4.5630 0.0000 -10769.4665 1535.7601 0.0000 0.0000 1749.5264 -7466.5120 299.3546 -9216.0385 -7405.2129 300.1262 598.5359 681.6689 30146.9659 91.8253 140.2950
TCL: Running FEP window  18: Lambda1 0.8500000000000002 Lambda2 0.9000000000000002 [dLambda 0.050000000000000044]
TCL: Setting parameter firsttimestep to 0
TCL: Setting parameter alchLambda to 0.8500000000000002
Info: NONBONDED TABLE R-SQUARED SPACING: 0.0625
Info: NONBONDED TABLE SIZE: 705 POINTS
TCL: Setting parameter alchLambda2 to 0.9000000000000002
Info: NONBONDED TABLE R-SQUARED SPACING: 0.0625
Info: NONBONDED TABLE SIZE: 705 POINTS
TCL: Running for 1500000 steps
ETITLE: TS BOND ANGLE DIHED IMPRP ELECT VDW BOUNDARY MISC KINETIC TOTAL TEMP POTENTIAL TOTALAVG TEMPAVG PRESSURE GPRESSURE VOLUME PRESSAVG GPRESSAVG
ENERGY: 0 1.0751 12.0298 4.5630 0.0000 -10770.9272 1536.7361 0.0000 0.0000 1748.6080 -7467.9152 299.1974 -9216.5232 -7467.9152 299.1974 623.5215 702.2610 30146.9659 623.5215 702.2610
ENERGY: 300000 1.3852 7.4449 5.4594 0.0000 -10600.6444 1376.1106 0.0000 0.0000 1787.3192 -7422.9251 305.8211 -9210.2444 -7409.5722 300.7095 -450.1432 -412.6154 30146.6342 -61.4405 -2.1221
ENERGY: 600000 1.5874 15.2204 4.8363 0.0000 -10598.9514 1393.7778 0.0000 0.0000 1699.4399 -7484.0895 290.7844 -9183.5294 -7409.5790 299.2633 -519.5579 -446.3734 30312.1841 -69.6223 -4.0195
ENERGY: 900000 1.0091 9.5736 4.6075 0.0000 -10501.0290 1361.9653 0.0000 0.0000 1766.4468 -7357.4268 302.2497 -9123.8735 -7407.7499 299.2170 -179.2808 -102.3929 29882.4049 -170.7716 -113.4112
ENERGY: 1200000 0.2944 7.7875 4.1903 0.0000 -10757.6122 1521.0517 0.0000 0.0000 1722.5580 -7501.7303 294.7401 -9224.2883 -7414.4146 300.3537 706.8060 717.1263 29935.4506 -75.8331 -20.8774
ENERGY: 1500000 0.6735 11.2590 3.5968 0.0000 -10681.5461 1498.3371 0.0000 0.0000 1790.0729 -7377.6067 306.2923 -9167.6796 -7408.4905 300.6350 532.8246 589.4766 30214.0013 -3.7612 47.6334
TCL: Running FEP window  19: Lambda1 0.9000000000000002 Lambda2 0.9500000000000003 [dLambda 0.050000000000000044]
TCL: Setting parameter firsttimestep to 0
TCL: Setting parameter alchLambda to 0.9000000000000002
Info: NONBONDED TABLE R-SQUARED SPACING: 0.0625
Info: NONBONDED TABLE SIZE: 705 POINTS
TCL: Setting parameter alchLambda2 to 0.9500000000000003
Info: NONBONDED TABLE R-SQUARED SPACING: 0.0625
Info: NONBONDED TABLE SIZE: 705 POINTS
TCL: Running for 1500000 steps
ETITLE: TS BOND ANGLE DIHED IMPRP ELECT VDW BOUNDARY MISC KINETIC TOTAL TEMP POTENTIAL TOTALAVG TEMPAVG PRESSURE GPRESSURE VOLUME PRESSAVG GPRESSAVG
ENERGY: 0 0.6735 11.2590 3.5968 0.0000 -10683.6852 1499.1569 0.0000 0.0000 1789.2080 -7379.7909 306.1443 -9168.9988 -7379.7909 306.1443 524.1986 603.8415 30214.0013 524.1986 603.8415
ENERGY: 300000 2.0899 9.3160 5.2286 0.0000 -10528.2310 1351.6633 0.0000 0.0000 1787.6318 -7372.3014 305.8746 -9159.9332 -7389.6699 304.7161 -497.7452 -443.4233 30007.8827 -225.9449 -166.1811
ENERGY: 600000 1.2446 8.6045 4.0718 0.0000 -10527.5663 1367.3339 0.0000 0.0000 1734.3453 -7411.9662 296.7570 -9146.3115 -7386.5267 303.3205 -393.1698 -364.8160 30351.1437 -154.7542 -106.7550
ENERGY: 900000 3.0769 7.8054 4.1322 0.0000 -10703.9544 1450.9721 0.0000 0.0000 1724.7854 -7513.1823 295.1212 -9237.9677 -7412.5168 301.2104 -48.6299 36.7278 30537.0087 -29.1043 26.9854
ENERGY: 1200000 1.9986 11.1794 4.7409 0.0000 -10598.8389 1406.8359 0.0000 0.0000 1708.4224 -7465.6617 292.3214 -9174.0841 -7402.7645 301.1970 -142.0436 -160.9876 30333.9076 22.0023 69.0747
ENERGY: 1500000 2.5404 12.0831 4.4626 0.0000 -10613.6269 1378.2124 0.0000 0.0000 1759.6971 -7456.6313 301.0948 -9216.3283 -7402.3559 300.7772 -537.7307 -472.9901 30053.3504 72.6964 122.0828
TCL: Running FEP window  20: Lambda1 0.9500000000000003 Lambda2 1.0    [dLambda 0.04999999999999971]
TCL: Setting parameter firsttimestep to 0
TCL: Setting parameter alchLambda to 0.9500000000000003
Info: NONBONDED TABLE R-SQUARED SPACING: 0.0625
Info: NONBONDED TABLE SIZE: 705 POINTS
TCL: Setting parameter alchLambda2 to 1.0
Info: NONBONDED TABLE R-SQUARED SPACING: 0.0625
Info: NONBONDED TABLE SIZE: 705 POINTS
TCL: Running for 1500000 steps
ETITLE: TS BOND ANGLE DIHED IMPRP ELECT VDW BOUNDARY MISC KINETIC TOTAL TEMP POTENTIAL TOTALAVG TEMPAVG PRESSURE GPRESSURE VOLUME PRESSAVG GPRESSAVG
ENERGY: 0 2.5404 12.0831 4.4626 0.0000 -10615.5769 1379.8193 0.0000 0.0000 1758.8311 -7457.8404 300.9466 -9216.6714 -7457.8404 300.9466 -523.5136 -442.4941 30053.3504 -523.5136 -442.4941
ENERGY: 300000 1.7491 12.1659 4.4539 0.0000 -10805.2979 1506.7070 0.0000 0.0000 1812.9225 -7467.2996 310.2020 -9280.2220 -7442.2440 302.2180 454.7468 535.2942 29849.4688 -220.0731 -158.8241
ENERGY: 600000 2.8776 10.0102 3.8422 0.0000 -10594.5444 1422.5948 0.0000 0.0000 1735.2725 -7419.9471 296.9156 -9155.2195 -7442.8664 298.7341 -90.6805 -41.4086 30450.1341 -260.3618 -197.8550
ENERGY: 900000 1.0664 11.1962 4.8628 0.0000 -10554.3263 1435.7039 0.0000 0.0000 1777.2770 -7324.2198 304.1029 -9101.4969 -7424.3845 300.7258 342.9742 373.7820 30330.2534 -152.8594 -88.8014
ENERGY: 1200000 2.5239 16.9040 3.6532 0.0000 -10414.1589 1330.2955 0.0000 0.0000 1773.9426 -7286.8397 303.5323 -9060.7823 -7418.4238 300.0509 -512.5783 -379.9017 30525.0489 -77.3133 -5.9569
ENERGY: 1500000 1.6811 9.7035 5.7925 0.0000 -10610.2554 1400.6478 0.0000 0.0000 1725.3440 -7467.0866 295.2168 -9192.4306 -7427.7128 299.3357 -117.5768 -41.9210 30112.6147 -83.8786 -8.5130
TCL: Exiting due to exit command.
