Info: SIMULATION PARAMETERS:
Info: TIMESTEP               2
Info: NUMBER OF STEPS        0
Info: STEPS PER CYCLE        10
Info: PERIODIC CELL BASIS 1  30.2362 0 0
Info: PERIODIC CELL BASIS 2  0 31.3005 0
Info: PERIODIC CELL BASIS 3  0 0 32.2525
Info: PERIODIC CELL CENTER   0 0 0
Info: WRAPPING WATERS AROUND PERIODIC BOUNDARIES ON OUTPUT.
Info: WRAPPING ALL CLUSTERS AROUND PERIODIC BOUNDARIES ON OUTPUT.
Info: FIRST LDB TIMESTEP     50
Info: LAST LDB TIMESTEP     -1
Info: HOM BACKGROUND SCALING 1
Info: PME BACKGROUND SCALING 1
Info: MIN ATOMS PER PATCH    40
Info: EMPTY PATCH LOAD       40 ATOMS
Info: VELOCITY FILE          mobley_3709920_equil.vel
Info: CENTER OF MASS MOVING INITIALLY? NO
Info: DIELECTRIC             1
Info: EXCLUDE                SCALED ONE-FOUR
Info: 1-4 ELECTROSTATICS SCALED BY 0.833333
Info: MODIFIED 1-4 VDW PARAMETERS WILL BE USED
Info: DCD FILENAME           mobley_3709920_prod.dcd
Info: DCD FREQUENCY          100000
Info: DCD FIRST STEP         100000
Info: DCD FILE WILL CONTAIN UNIT CELL DATA
Info: XST FILENAME           mobley_3709920_prod.xst
Info: XST FREQUENCY          100000
Info: NO VELOCITY DCD OUTPUT
Info: NO FORCE DCD OUTPUT
Info: OUTPUT FILENAME        mobley_3709920_prod
Info: BINARY OUTPUT FILES WILL BE USED
Info: RESTART FILENAME       mobley_3709920_prod.restart
Info: RESTART FREQUENCY      100000
Info: BINARY RESTART FILES WILL BE USED
Info: CUTOFF                 9
Info: PAIRLIST DISTANCE      11
Info: PAIRLIST SHRINK RATE   0.01
Info: PAIRLIST GROW RATE     0.01
Info: PAIRLIST TRIGGER       0.3
Info: PAIRLISTS PER CYCLE    2
Info: PAIRLISTS ENABLED
Info: MARGIN                 2
Info: HYDROGEN GROUP CUTOFF  2.5
Info: PATCH DIMENSION        15.5
Info: ENERGY OUTPUT STEPS    100000
Info: ENERGY EVALUATION STEPS    100000
Info: OUTPUT ENERGY PRECISION 4
Info: CROSSTERM ENERGY INCLUDED IN DIHEDRAL
Info: TIMING OUTPUT STEPS    1000000
Info: PRESSURE OUTPUT STEPS  100000
Info: ALCHEMICAL FEP ON
Info: FEP CURRENT LAMBDA VALUE     0
Info: FEP COMPARISON LAMBDA VALUE  0.05
Info: FEP INTRA-ALCHEMICAL NON-BONDED INTERACTIONS WILL BE RETAINED
Info: FEP INTRA-ALCHEMICAL BONDED INTERACTIONS WILL BE RETAINED
Info: FEP VDW SHIFTING COEFFICIENT 5
Info: FEP ELEC. ACTIVE FOR ANNIHILATED PARTICLES BETWEEN LAMBDA = 0 AND LAMBDA = 0.5
Info: FEP ELEC. ACTIVE FOR EXNIHILATED PARTICLES BETWEEN LAMBDA = 0.5 AND LAMBDA = 1
Info: FEP VDW ACTIVE FOR ANNIHILATED PARTICLES BETWEEN LAMBDA = 0 AND LAMBDA = 1
Info: FEP VDW ACTIVE FOR EXNIHILATED PARTICLES BETWEEN LAMBDA = 0 AND LAMBDA = 1
Info: FEP BOND ACTIVE FOR ANNIHILATED PARTICLES BETWEEN LAMBDA = 1 AND LAMBDA = 1
Info: FEP BOND ACTIVE FOR EXNIHILATED PARTICLES BETWEEN LAMBDA = 0 AND LAMBDA = 0
Info: LANGEVIN DYNAMICS ACTIVE
Info: LANGEVIN TEMPERATURE   300
Info: LANGEVIN USING BBK INTEGRATOR
Info: LANGEVIN DAMPING COEFFICIENT IS 1 INVERSE PS
Info: LANGEVIN DYNAMICS APPLIED TO HYDROGENS
Info: LANGEVIN PISTON PRESSURE CONTROL ACTIVE
Info:        TARGET PRESSURE IS 1.01325 BAR
Info:     OSCILLATION PERIOD IS 50 FS
Info:             DECAY TIME IS 25 FS
Info:     PISTON TEMPERATURE IS 300 K
Info:       PRESSURE CONTROL IS GROUP-BASED
Info:    INITIAL STRAIN RATE IS 4.05183e-05 4.05183e-05 4.05183e-05
Info:       CELL FLUCTUATION IS ISOTROPIC
Info: PARTICLE MESH EWALD (PME) ACTIVE
Info: PME TOLERANCE               1e-06
Info: PME EWALD COEFFICIENT       0.348832
Info: PME INTERPOLATION ORDER     4
Info: PME GRID DIMENSIONS         32 32 36
Info: PME MAXIMUM GRID SPACING    1
Info: PME CALCULATION WILL BE PERFORMED ON GPU
Info: FULL ELECTROSTATIC EVALUATION FREQUENCY      2
Info: USING VERLET I (r-RESPA) MTS SCHEME.
Info: C1 SPLITTING OF LONG RANGE ELECTROSTATICS
Info: PLACING ATOMS IN PATCHES BY HYDROGEN GROUPS
Info: RIGID BONDS TO HYDROGEN : ALL
Info:         ERROR TOLERANCE : 1e-08
Info:          MAX ITERATIONS : 100
Info: RIGID WATER USING SETTLE ALGORITHM
Info: RANDOM NUMBER SEED     1744072223
Info: USE HYDROGEN BONDS?    NO
Info: Using AMBER format force field!
Info: AMBER PARM FILE        mobley_3709920.prmtop
Info: COORDINATE PDB         mobley_3709920.pdb
Info: Exclusions will be read from PARM file!
Info: SCNB (VDW SCALING)     2
Info: USING ARITHMETIC MEAN TO COMBINE L-J SIGMA PARAMETERS
Info: BINARY COORDINATES     mobley_3709920_equil.coor
Info: SUMMARY OF PARAMETERS:
Info: 7 BONDS
Info: 9 ANGLES
Info:   9 HARMONIC
Info:   0 COSINE-BASED
Info: 11 DIHEDRAL
Info: 0 IMPROPER
Info: 0 CROSSTERM
Info: 0 VDW
Info: 21 VDW_PAIRS
Info: 0 NBTHOLE_PAIRS
Info: To read alchdata from file: mobley_3709920.pdb
Info: To read alchflag data from column: 5
Info: STRUCTURE SUMMARY:
Info: 2994 ATOMS
Info: 2993 BONDS
Info: 48 ANGLES
Info: 78 DIHEDRALS
Info: 0 IMPROPERS
Info: 0 CROSSTERMS
Info: 3105 EXCLUSIONS
Info: 2985 RIGID BONDS
Info: ALCH: 0 ATOMS TO DISAPPEAR IN FINAL STATE
Info: ALCH: 27 ATOMS TO APPEAR IN FINAL STATE
Info: 5997 DEGREES OF FREEDOM
Info: 998 HYDROGEN GROUPS
Info: 4 ATOMS IN LARGEST HYDROGEN GROUP
Info: 998 MIGRATION GROUPS
Info: 4 ATOMS IN LARGEST MIGRATION GROUP
Info: TOTAL MASS = 17944.1 amu
Info: TOTAL CHARGE = -0.000100017 e
Info: MASS DENSITY = 0.976198 g/cm^3
Info: ATOM DENSITY = 0.0980866 atoms/A^3
Info: ADDED 0 IMPLICIT EXCLUSIONS
Info: NONBONDED TABLE R-SQUARED SPACING: 0.0625
Info: NONBONDED TABLE SIZE: 705 POINTS
Info: REMOVING COM VELOCITY 0.0385072 0.224991 0.253733
Info: Use 3D box decompostion in PME FFT.
Info: Updated CUDA force table with 4096 elements.
Info: Updated CUDA LJ table with 6 x 6 elements.
Info: Found 30 unique exclusion lists needing 112 bytes
TCL: Running for 1500000 steps
ETITLE: TS BOND ANGLE DIHED IMPRP ELECT VDW BOUNDARY MISC KINETIC TOTAL TEMP POTENTIAL TOTALAVG TEMPAVG PRESSURE GPRESSURE VOLUME PRESSAVG GPRESSAVG
ENERGY: 0 1.5226 10.9065 9.0305 0.0000 -10767.9248 1478.6611 0.0000 0.0000 1774.0330 -7493.7711 297.7269 -9267.8041 -7493.7711 297.7269 497.5402 567.7442 30524.0416 497.5402 567.7442
ENERGY: 300000 1.1320 9.0073 7.7505 0.0000 -10952.4526 1578.2584 0.0000 0.0000 1773.4537 -7582.8508 297.6296 -9356.3045 -7494.0109 303.5289 861.6827 999.0038 30292.5969 388.4088 435.2019
ENERGY: 600000 5.6203 10.1544 7.8202 0.0000 -10870.2808 1530.0201 0.0000 0.0000 1838.9938 -7477.6721 308.6289 -9316.6659 -7492.3461 303.5500 605.6424 589.4810 30365.5784 248.9230 285.9664
ENERGY: 900000 1.1234 10.3495 8.2075 0.0000 -10820.2842 1419.6316 0.0000 0.0000 1787.6301 -7593.3421 300.0088 -9380.9722 -7516.6235 301.5976 -105.0961 -19.0978 30078.6333 149.7063 202.9781
ENERGY: 1200000 2.9345 10.2825 6.5581 0.0000 -10983.4266 1573.0501 0.0000 0.0000 1727.6031 -7662.9983 289.9348 -9390.6014 -7534.3969 299.4874 895.3765 934.1294 30010.0132 91.0043 139.9113
ENERGY: 1500000 1.7268 9.9674 10.1782 0.0000 -10885.1588 1556.8888 0.0000 0.0000 1768.9068 -7537.4907 296.8666 -9306.3975 -7537.6404 299.4932 606.0901 671.8036 30727.8539 148.0957 193.3702
TCL: Running FEP window   2: Lambda1 0.05   Lambda2 0.1    [dLambda 0.05  ]
TCL: Setting parameter firsttimestep to 0
TCL: Setting parameter alchLambda to 0.05
Info: NONBONDED TABLE R-SQUARED SPACING: 0.0625
Info: NONBONDED TABLE SIZE: 705 POINTS
TCL: Setting parameter alchLambda2 to 0.1
Info: NONBONDED TABLE R-SQUARED SPACING: 0.0625
Info: NONBONDED TABLE SIZE: 705 POINTS
TCL: Running for 1500000 steps
ETITLE: TS BOND ANGLE DIHED IMPRP ELECT VDW BOUNDARY MISC KINETIC TOTAL TEMP POTENTIAL TOTALAVG TEMPAVG PRESSURE GPRESSURE VOLUME PRESSAVG GPRESSAVG
ENERGY: 0 1.7269 9.9674 10.1782 0.0000 -10885.1584 1558.1561 0.0000 0.0000 1768.0103 -7537.1196 296.7161 -9305.1299 -7537.1196 296.7161 582.7777 676.7409 30727.8539 582.7777 676.7409
ENERGY: 300000 3.9749 14.1951 8.5273 0.0000 -10720.9146 1409.0233 0.0000 0.0000 1743.4521 -7541.7419 292.5946 -9285.1940 -7515.9644 299.6451 -697.8725 -639.0895 30875.4470 -84.4971 3.7395
ENERGY: 600000 1.3539 17.4497 9.6412 0.0000 -10710.9402 1359.1914 0.0000 0.0000 1811.2943 -7512.0097 303.9802 -9323.3040 -7506.1849 300.1728 -899.9791 -826.4478 30855.6151 -202.4408 -117.3442
ENERGY: 900000 4.1290 12.5970 5.9869 0.0000 -10749.2982 1437.4109 0.0000 0.0000 1777.3360 -7511.8384 298.2812 -9289.1744 -7509.3132 301.2520 -275.2210 -209.9076 30475.9777 -140.7679 -55.2193
ENERGY: 1200000 1.8219 11.2908 6.5053 0.0000 -10840.7036 1501.0313 0.0000 0.0000 1803.2206 -7516.8336 302.6253 -9320.0542 -7510.1367 301.6882 214.9439 255.7859 30804.6159 -88.0629 -7.8522
ENERGY: 1500000 2.2774 8.8433 6.6729 0.0000 -10768.0280 1454.3881 0.0000 0.0000 1813.2990 -7482.5473 304.3167 -9295.8463 -7511.1867 301.3898 164.6358 209.7920 30570.6581 -124.5928 -45.4785
TCL: Running FEP window   3: Lambda1 0.1    Lambda2 0.15000000000000002 [dLambda 0.05000000000000002]
TCL: Setting parameter firsttimestep to 0
TCL: Setting parameter alchLambda to 0.1
Info: NONBONDED TABLE R-SQUARED SPACING: 0.0625
Info: NONBONDED TABLE SIZE: 705 POINTS
TCL: Setting parameter alchLambda2 to 0.15000000000000002
Info: NONBONDED TABLE R-SQUARED SPACING: 0.0625
Info: NONBONDED TABLE SIZE: 705 POINTS
TCL: Running for 1500000 steps
ETITLE: TS BOND ANGLE DIHED IMPRP ELECT VDW BOUNDARY MISC KINETIC TOTAL TEMP POTENTIAL TOTALAVG TEMPAVG PRESSURE GPRESSURE VOLUME PRESSAVG GPRESSAVG
ENERGY: 0 2.2774 8.8433 6.6729 0.0000 -10768.0275 1459.1016 0.0000 0.0000 1812.3904 -7478.7420 304.1642 -9291.1324 -7478.7420 304.1642 122.3026 222.1367 30570.6581 122.3026 222.1367
ENERGY: 300000 1.9699 18.9785 6.7612 0.0000 -10836.6524 1467.0928 0.0000 0.0000 1751.3311 -7590.5189 293.9169 -9341.8501 -7519.2400 299.4213 -145.4866 -137.2699 30823.0858 224.6998 278.0061
ENERGY: 600000 5.6386 9.5533 11.2051 0.0000 -10681.7283 1392.0510 0.0000 0.0000 1775.0177 -7488.2627 297.8921 -9263.2804 -7502.8988 299.3176 -618.7819 -607.0279 30620.8984 37.3143 103.4635
ENERGY: 900000 3.1042 12.1599 5.6646 0.0000 -10808.7749 1498.6172 0.0000 0.0000 1813.1556 -7476.0733 304.2926 -9289.2290 -7512.5079 298.7945 224.6244 306.6375 30702.6038 94.0168 158.0243
ENERGY: 1200000 3.1133 11.6087 6.3854 0.0000 -10855.3533 1504.8875 0.0000 0.0000 1742.3489 -7587.0095 292.4095 -9329.3584 -7514.8809 299.1334 -41.0767 40.8981 31185.6143 6.5039 68.8301
ENERGY: 1500000 2.5260 12.0033 6.6657 0.0000 -10532.3222 1330.5914 0.0000 0.0000 1842.6487 -7337.8872 309.2423 -9180.5359 -7500.7959 300.9715 -583.1473 -453.4451 30736.6192 -8.6815 57.2418
TCL: Running FEP window   4: Lambda1 0.15000000000000002 Lambda2 0.2    [dLambda 0.04999999999999999]
TCL: Setting parameter firsttimestep to 0
TCL: Setting parameter alchLambda to 0.15000000000000002
Info: NONBONDED TABLE R-SQUARED SPACING: 0.0625
Info: NONBONDED TABLE SIZE: 705 POINTS
TCL: Setting parameter alchLambda2 to 0.2
Info: NONBONDED TABLE R-SQUARED SPACING: 0.0625
Info: NONBONDED TABLE SIZE: 705 POINTS
TCL: Running for 1500000 steps
ETITLE: TS BOND ANGLE DIHED IMPRP ELECT VDW BOUNDARY MISC KINETIC TOTAL TEMP POTENTIAL TOTALAVG TEMPAVG PRESSURE GPRESSURE VOLUME PRESSAVG GPRESSAVG
ENERGY: 0 2.5260 12.0033 6.6657 0.0000 -10532.3223 1332.3098 0.0000 0.0000 1841.7228 -7337.0947 309.0869 -9178.8175 -7337.0947 309.0869 -517.4367 -443.7389 30736.6192 -517.4367 -443.7389
ENERGY: 300000 2.5533 11.3577 10.7025 0.0000 -10728.6526 1406.7902 0.0000 0.0000 1741.3264 -7555.9226 292.2379 -9297.2490 -7516.7468 298.4147 -372.2913 -274.7992 30147.7380 -439.1208 -341.5828
ENERGY: 600000 3.7047 12.4751 7.6316 0.0000 -10767.9297 1407.1792 0.0000 0.0000 1756.0250 -7580.9141 294.7047 -9336.9391 -7499.1557 300.0836 -840.8109 -759.8769 30988.9686 -355.3242 -268.1198
ENERGY: 900000 3.3501 9.2776 7.2470 0.0000 -10707.7531 1381.0304 0.0000 0.0000 1760.5248 -7546.3231 295.4599 -9306.8479 -7509.9087 299.4031 -645.2286 -599.6209 30279.5043 -350.8300 -280.0903
ENERGY: 1200000 2.3267 12.9267 7.3747 0.0000 -10862.8350 1455.2952 0.0000 0.0000 1835.0400 -7549.8718 307.9654 -9384.9118 -7515.1105 300.3635 -342.1507 -208.8120 30635.9624 -218.4295 -145.2966
ENERGY: 1500000 4.2949 16.4244 11.0373 0.0000 -10806.7042 1474.5179 0.0000 0.0000 1804.3691 -7496.0607 302.8180 -9300.4298 -7518.1369 299.6585 33.5302 140.4544 30659.4598 -165.8671 -92.5210
TCL: Running FEP window   5: Lambda1 0.2    Lambda2 0.25   [dLambda 0.04999999999999999]
TCL: Setting parameter firsttimestep to 0
TCL: Setting parameter alchLambda to 0.2
Info: NONBONDED TABLE R-SQUARED SPACING: 0.0625
Info: NONBONDED TABLE SIZE: 705 POINTS
TCL: Setting parameter alchLambda2 to 0.25
Info: NONBONDED TABLE R-SQUARED SPACING: 0.0625
Info: NONBONDED TABLE SIZE: 705 POINTS
TCL: Running for 1500000 steps
ETITLE: TS BOND ANGLE DIHED IMPRP ELECT VDW BOUNDARY MISC KINETIC TOTAL TEMP POTENTIAL TOTALAVG TEMPAVG PRESSURE GPRESSURE VOLUME PRESSAVG GPRESSAVG
ENERGY: 0 4.2949 16.4245 11.0373 0.0000 -10806.7005 1476.0709 0.0000 0.0000 1803.4885 -7495.3845 302.6702 -9298.8730 -7495.3845 302.6702 79.2078 150.5897 30659.4598 79.2078 150.5897
ENERGY: 300000 1.5269 11.1133 5.4857 0.0000 -10740.9353 1443.0301 0.0000 0.0000 1732.3236 -7547.4557 290.7270 -9279.7793 -7526.5589 299.3653 17.5660 125.5354 30547.4762 -26.7375 53.2067
ENERGY: 600000 1.3860 14.1927 6.2585 0.0000 -10717.5945 1430.1684 0.0000 0.0000 1754.8765 -7510.7124 294.5119 -9265.5889 -7526.9167 298.1088 -286.9284 -181.6717 30783.8693 59.3456 120.8042
ENERGY: 900000 3.5777 16.9847 7.7430 0.0000 -10778.3747 1463.2065 0.0000 0.0000 1830.3082 -7456.5547 307.1712 -9286.8629 -7517.2797 300.4396 186.3192 221.6759 30495.4975 36.9031 95.6481
ENERGY: 1200000 2.1196 11.5886 4.9938 0.0000 -11005.6111 1676.1027 0.0000 0.0000 1811.2159 -7499.5905 303.9671 -9310.8065 -7513.3407 300.6800 1849.3635 1896.0083 30529.7518 220.5396 275.2657
ENERGY: 1500000 2.5933 15.5020 10.7390 0.0000 -10723.2700 1437.1761 0.0000 0.0000 1835.6528 -7421.6069 308.0682 -9257.2596 -7511.9784 300.8249 -176.0559 -64.2761 30894.5734 174.0279 233.7777
TCL: Running FEP window   6: Lambda1 0.25   Lambda2 0.3    [dLambda 0.04999999999999999]
TCL: Setting parameter firsttimestep to 0
TCL: Setting parameter alchLambda to 0.25
Info: NONBONDED TABLE R-SQUARED SPACING: 0.0625
Info: NONBONDED TABLE SIZE: 705 POINTS
TCL: Setting parameter alchLambda2 to 0.3
Info: NONBONDED TABLE R-SQUARED SPACING: 0.0625
Info: NONBONDED TABLE SIZE: 705 POINTS
TCL: Running for 1500000 steps
ETITLE: TS BOND ANGLE DIHED IMPRP ELECT VDW BOUNDARY MISC KINETIC TOTAL TEMP POTENTIAL TOTALAVG TEMPAVG PRESSURE GPRESSURE VOLUME PRESSAVG GPRESSAVG
ENERGY: 0 2.5933 15.5020 10.7390 0.0000 -10723.2681 1437.5244 0.0000 0.0000 1834.7945 -7422.1149 307.9242 -9256.9094 -7422.1149 307.9242 -136.0547 -57.5632 30894.5734 -136.0547 -57.5632
ENERGY: 300000 3.2578 11.7573 9.3679 0.0000 -10848.5623 1509.5382 0.0000 0.0000 1816.9091 -7497.7320 304.9225 -9314.6411 -7464.1764 305.4068 203.9341 230.0543 30668.9226 -122.1715 -65.8446
ENERGY: 600000 3.4807 9.5591 10.1445 0.0000 -10771.1955 1413.1457 0.0000 0.0000 1794.8460 -7540.0195 301.2198 -9334.8655 -7488.6231 304.5587 -276.5640 -194.0244 30444.1827 -20.0448 43.9057
ENERGY: 900000 2.9085 17.7870 8.0909 0.0000 -10803.0494 1417.8156 0.0000 0.0000 1843.9426 -7512.5048 309.4594 -9356.4474 -7484.4252 304.0168 -456.4068 -327.8111 30699.5210 -79.5193 -8.4923
ENERGY: 1200000 3.6093 12.7469 6.3388 0.0000 -10862.5971 1485.7259 0.0000 0.0000 1768.7938 -7585.3823 296.8476 -9354.1762 -7493.2384 304.0293 397.8744 444.5724 29933.8464 -16.0231 53.2369
ENERGY: 1500000 3.1901 11.6508 8.0248 0.0000 -10802.3653 1433.6940 0.0000 0.0000 1801.1452 -7544.6603 302.2770 -9345.8055 -7501.4896 304.1555 -221.0360 -155.7482 30283.7791 -19.8907 46.0477
TCL: Running FEP window   7: Lambda1 0.3    Lambda2 0.35   [dLambda 0.04999999999999999]
TCL: Setting parameter firsttimestep to 0
TCL: Setting parameter alchLambda to 0.3
Info: NONBONDED TABLE R-SQUARED SPACING: 0.0625
Info: NONBONDED TABLE SIZE: 705 POINTS
TCL: Setting parameter alchLambda2 to 0.35
Info: NONBONDED TABLE R-SQUARED SPACING: 0.0625
Info: NONBONDED TABLE SIZE: 705 POINTS
TCL: Running for 1500000 steps
ETITLE: TS BOND ANGLE DIHED IMPRP ELECT VDW BOUNDARY MISC KINETIC TOTAL TEMP POTENTIAL TOTALAVG TEMPAVG PRESSURE GPRESSURE VOLUME PRESSAVG GPRESSAVG
ENERGY: 0 3.1901 11.6508 8.0248 0.0000 -10802.3649 1433.4334 0.0000 0.0000 1800.2151 -7545.8506 302.1209 -9346.0658 -7545.8506 302.1209 -227.4819 -154.1119 30283.7791 -227.4819 -154.1119
ENERGY: 300000 2.8775 16.3284 5.0106 0.0000 -10846.8031 1486.2853 0.0000 0.0000 1792.7463 -7543.5550 300.8674 -9336.3013 -7563.8369 301.0401 331.8453 399.2990 30440.9063 177.1649 261.1183
ENERGY: 600000 2.9034 7.6305 9.1274 0.0000 -10704.7746 1388.6292 0.0000 0.0000 1705.8455 -7590.6386 286.2833 -9296.4842 -7597.2873 298.7917 -779.2393 -637.0481 30986.4896 75.6594 140.0931
ENERGY: 900000 1.1304 15.5735 7.0918 0.0000 -10802.3259 1419.3780 0.0000 0.0000 1781.0726 -7578.0796 298.9083 -9359.1522 -7571.7965 299.0998 -287.7180 -245.2383 30599.8355 111.4045 173.6707
ENERGY: 1200000 4.5001 13.1785 6.0802 0.0000 -10833.1113 1507.2556 0.0000 0.0000 1776.7036 -7525.3932 298.1751 -9302.0969 -7552.3194 299.7873 433.8944 478.1163 30602.4850 109.1555 171.6286
ENERGY: 1500000 3.2494 13.3633 7.4648 0.0000 -10678.6350 1407.8971 0.0000 0.0000 1776.6523 -7470.0081 298.1664 -9246.6603 -7552.5462 299.7304 81.8562 124.8062 30479.2650 83.7586 144.3805
TCL: Running FEP window   8: Lambda1 0.35   Lambda2 0.39999999999999997 [dLambda 0.04999999999999999]
TCL: Setting parameter firsttimestep to 0
TCL: Setting parameter alchLambda to 0.35
Info: NONBONDED TABLE R-SQUARED SPACING: 0.0625
Info: NONBONDED TABLE SIZE: 705 POINTS
TCL: Setting parameter alchLambda2 to 0.39999999999999997
Info: NONBONDED TABLE R-SQUARED SPACING: 0.0625
Info: NONBONDED TABLE SIZE: 705 POINTS
TCL: Running for 1500000 steps
ETITLE: TS BOND ANGLE DIHED IMPRP ELECT VDW BOUNDARY MISC KINETIC TOTAL TEMP POTENTIAL TOTALAVG TEMPAVG PRESSURE GPRESSURE VOLUME PRESSAVG GPRESSAVG
ENERGY: 0 3.2494 13.3633 7.4648 0.0000 -10678.6339 1409.3156 0.0000 0.0000 1775.7482 -7469.4926 298.0147 -9245.2408 -7469.4926 298.0147 59.7883 143.5596 30479.2650 59.7883 143.5596
ENERGY: 300000 3.1224 8.7048 9.5439 0.0000 -10731.0814 1440.6901 0.0000 0.0000 1799.7818 -7469.2385 302.0482 -9269.0202 -7505.3100 298.1280 -140.3028 -18.0263 30763.1140 -2.3644 109.8303
ENERGY: 600000 3.0687 10.4916 9.2608 0.0000 -10906.0773 1547.2081 0.0000 0.0000 1798.1464 -7537.9019 301.7737 -9336.0482 -7543.2169 297.7183 621.3049 626.6484 30596.8804 202.2722 280.6988
ENERGY: 900000 1.3688 15.1411 7.7318 0.0000 -10891.4219 1493.0500 0.0000 0.0000 1778.0856 -7596.0447 298.4070 -9374.1303 -7553.4616 298.1725 231.9754 327.8058 30355.8570 182.8968 259.5548
ENERGY: 1200000 2.6704 10.6242 8.8346 0.0000 -10755.9318 1411.8423 0.0000 0.0000 1830.7535 -7491.2067 307.2460 -9321.9602 -7540.1712 298.3733 -232.9156 -123.0230 30423.1486 260.8013 349.8014
ENERGY: 1500000 2.9799 7.9703 8.1950 0.0000 -10872.9477 1484.6816 0.0000 0.0000 1808.0638 -7561.0571 303.4381 -9369.1208 -7545.7341 299.2327 -7.9597 63.3469 30753.7907 196.1535 277.5443
TCL: Running FEP window   9: Lambda1 0.39999999999999997 Lambda2 0.44999999999999996 [dLambda 0.04999999999999999]
TCL: Setting parameter firsttimestep to 0
TCL: Setting parameter alchLambda to 0.39999999999999997
Info: NONBONDED TABLE R-SQUARED SPACING: 0.0625
Info: NONBONDED TABLE SIZE: 705 POINTS
TCL: Setting parameter alchLambda2 to 0.44999999999999996
Info: NONBONDED TABLE R-SQUARED SPACING: 0.0625
Info: NONBONDED TABLE SIZE: 705 POINTS
TCL: Running for 1500000 steps
ETITLE: TS BOND ANGLE DIHED IMPRP ELECT VDW BOUNDARY MISC KINETIC TOTAL TEMP POTENTIAL TOTALAVG TEMPAVG PRESSURE GPRESSURE VOLUME PRESSAVG GPRESSAVG
ENERGY: 0 2.9799 7.9703 8.1950 0.0000 -10872.9466 1484.6147 0.0000 0.0000 1807.1495 -7562.0371 303.2846 -9369.1866 -7562.0371 303.2846 -15.4436 70.9027 30753.7907 -15.4436 70.9027
ENERGY: 300000 0.6296 14.3710 9.1528 0.0000 -10832.1428 1465.4815 0.0000 0.0000 1743.7464 -7598.7616 292.6440 -9342.5080 -7579.0816 302.2307 52.7331 116.2024 30720.7520 -8.9376 80.4357
ENERGY: 600000 1.6463 7.8783 7.1071 0.0000 -10681.3839 1438.3842 0.0000 0.0000 1753.2181 -7473.1498 294.2336 -9226.3679 -7540.8483 299.7813 -221.8818 -122.8183 31225.1230 -35.1776 41.6165
ENERGY: 900000 3.1861 13.7517 7.6159 0.0000 -10844.3341 1474.8672 0.0000 0.0000 1770.4477 -7574.4654 297.1252 -9344.9131 -7542.3133 299.2549 -39.3505 31.2604 30499.8551 -6.7068 61.8375
ENERGY: 1200000 1.7796 12.4716 7.2932 0.0000 -10784.3824 1398.3267 0.0000 0.0000 1817.3774 -7547.1339 305.0011 -9364.5113 -7533.7185 300.5281 -281.9824 -186.0365 30262.7092 12.0696 80.9019
ENERGY: 1500000 1.7788 12.1152 7.0640 0.0000 -10743.3513 1430.9815 0.0000 0.0000 1837.3043 -7454.1075 308.3454 -9291.4118 -7524.7968 301.4583 85.6503 165.7711 30371.0876 68.9150 139.8519
TCL: Running FEP window  10: Lambda1 0.44999999999999996 Lambda2 0.49999999999999994 [dLambda 0.04999999999999999]
TCL: Setting parameter firsttimestep to 0
TCL: Setting parameter alchLambda to 0.44999999999999996
Info: NONBONDED TABLE R-SQUARED SPACING: 0.0625
Info: NONBONDED TABLE SIZE: 705 POINTS
TCL: Setting parameter alchLambda2 to 0.49999999999999994
Info: NONBONDED TABLE R-SQUARED SPACING: 0.0625
Info: NONBONDED TABLE SIZE: 705 POINTS
TCL: Running for 1500000 steps
ETITLE: TS BOND ANGLE DIHED IMPRP ELECT VDW BOUNDARY MISC KINETIC TOTAL TEMP POTENTIAL TOTALAVG TEMPAVG PRESSURE GPRESSURE VOLUME PRESSAVG GPRESSAVG
ENERGY: 0 1.7788 12.1152 7.0640 0.0000 -10743.3513 1430.6879 0.0000 0.0000 1836.4559 -7455.2493 308.2030 -9291.7053 -7455.2493 308.2030 85.3599 170.0527 30371.0876 85.3599 170.0527
ENERGY: 300000 2.2059 11.1711 7.6025 0.0000 -10727.4527 1371.6853 0.0000 0.0000 1798.0322 -7536.7556 301.7545 -9334.7878 -7561.8125 300.7610 -834.1076 -814.8750 31155.4974 -249.0596 -193.7970
ENERGY: 600000 3.6700 8.7431 5.6347 0.0000 -10832.4861 1497.0563 0.0000 0.0000 1751.6600 -7565.7221 293.9721 -9317.3821 -7575.6178 299.7569 197.8064 227.7337 30840.4768 -129.4601 -71.8639
ENERGY: 900000 2.7496 10.3818 6.0454 0.0000 -10680.1150 1484.2652 0.0000 0.0000 1765.4751 -7411.1979 296.2906 -9176.6730 -7560.3135 300.6316 364.5173 419.9430 31067.7695 -48.4683 24.4934
ENERGY: 1200000 3.6858 9.8857 7.6306 0.0000 -10852.0905 1478.0395 0.0000 0.0000 1784.5624 -7568.2863 299.4940 -9352.8488 -7564.3143 300.2802 107.3719 131.9439 30671.2013 -85.5035 -19.4920
ENERGY: 1500000 1.4423 12.7610 8.5972 0.0000 -10839.2843 1427.7882 0.0000 0.0000 1748.4904 -7640.2052 293.4402 -9388.6956 -7562.0014 300.6255 -257.3281 -204.2572 30334.8193 -86.5762 -20.3530
TCL: Running FEP window  11: Lambda1 0.49999999999999994 Lambda2 0.5499999999999999 [dLambda 0.04999999999999999]
TCL: Setting parameter firsttimestep to 0
TCL: Setting parameter alchLambda to 0.49999999999999994
Info: NONBONDED TABLE R-SQUARED SPACING: 0.0625
Info: NONBONDED TABLE SIZE: 705 POINTS
TCL: Setting parameter alchLambda2 to 0.5499999999999999
Info: NONBONDED TABLE R-SQUARED SPACING: 0.0625
Info: NONBONDED TABLE SIZE: 705 POINTS
TCL: Running for 1500000 steps
ETITLE: TS BOND ANGLE DIHED IMPRP ELECT VDW BOUNDARY MISC KINETIC TOTAL TEMP POTENTIAL TOTALAVG TEMPAVG PRESSURE GPRESSURE VOLUME PRESSAVG GPRESSAVG
ENERGY: 0 1.4423 12.7610 8.5972 0.0000 -10839.2843 1428.8947 0.0000 0.0000 1747.5859 -7640.0031 293.2884 -9387.5890 -7640.0031 293.2884 -250.4573 -184.2558 30334.8193 -250.4573 -184.2558
ENERGY: 300000 7.1968 7.8940 7.6292 0.0000 -10730.6621 1435.2879 0.0000 0.0000 1814.1982 -7458.4560 304.4676 -9272.6543 -7571.2262 297.4448 -231.5598 -167.5898 31265.1584 -440.3889 -361.2451
ENERGY: 600000 4.2359 13.7344 8.5297 0.0000 -10877.2529 1492.5684 0.0000 0.0000 1796.4747 -7561.7098 301.4931 -9358.1845 -7570.2155 298.2573 61.6262 135.7100 30755.8443 -264.4735 -187.2057
ENERGY: 900000 1.0300 9.1557 8.0369 0.0000 -10799.6536 1415.1467 0.0000 0.0000 1797.8085 -7568.4758 301.7170 -9366.2843 -7562.3324 299.1781 -399.3251 -356.9019 30731.5221 -188.9824 -116.4074
ENERGY: 1200000 1.4875 10.0403 10.0758 0.0000 -10785.0022 1390.9882 0.0000 0.0000 1783.2325 -7589.1779 299.2708 -9372.4104 -7560.6956 298.9965 -428.7378 -354.1946 30292.8216 -209.7419 -134.4120
ENERGY: 1500000 2.3031 12.5619 9.2307 0.0000 -10834.4723 1465.6896 0.0000 0.0000 1805.4723 -7539.2148 303.0032 -9344.6870 -7557.8024 299.0101 44.7005 143.4267 30668.8962 -161.4065 -81.5431
TCL: Running FEP window  12: Lambda1 0.5499999999999999 Lambda2 0.6    [dLambda 0.050000000000000044]
TCL: Setting parameter firsttimestep to 0
TCL: Setting parameter alchLambda to 0.5499999999999999
Info: NONBONDED TABLE R-SQUARED SPACING: 0.0625
Info: NONBONDED TABLE SIZE: 705 POINTS
TCL: Setting parameter alchLambda2 to 0.6
Info: NONBONDED TABLE R-SQUARED SPACING: 0.0625
Info: NONBONDED TABLE SIZE: 705 POINTS
TCL: Running for 1500000 steps
ETITLE: TS BOND ANGLE DIHED IMPRP ELECT VDW BOUNDARY MISC KINETIC TOTAL TEMP POTENTIAL TOTALAVG TEMPAVG PRESSURE GPRESSURE VOLUME PRESSAVG GPRESSAVG
ENERGY: 0 2.3031 12.5619 9.2307 0.0000 -10834.4962 1465.5152 0.0000 0.0000 1804.5957 -7540.2896 302.8560 -9344.8853 -7540.2896 302.8560 65.9440 150.9287 30668.8962 65.9440 150.9287
ENERGY: 300000 1.6098 9.9479 10.6112 0.0000 -10888.6615 1470.3910 0.0000 0.0000 1759.4618 -7636.6398 295.2815 -9396.1016 -7590.3013 300.3079 208.7729 233.5623 30120.2603 -44.1158 47.1416
ENERGY: 600000 1.6100 9.0330 6.9498 0.0000 -10721.5396 1359.8924 0.0000 0.0000 1787.0150 -7557.0394 299.9056 -9344.0543 -7575.2491 298.9817 -931.0971 -853.5822 31421.8258 -80.7906 -4.6931
ENERGY: 900000 4.6485 15.4034 7.8446 0.0000 -10778.8037 1429.2898 0.0000 0.0000 1810.2793 -7511.3381 303.8099 -9321.6174 -7566.9844 298.4070 -191.9410 -169.1680 30765.4577 -185.4136 -114.0285
ENERGY: 1200000 2.3570 17.2192 5.7595 0.0000 -10799.5786 1514.2933 0.0000 0.0000 1802.5016 -7457.4480 302.5046 -9259.9495 -7558.1573 298.1405 739.8897 788.1390 30844.0839 -86.1335 -17.8387
ENERGY: 1500000 1.7054 11.0967 7.1846 0.0000 -10768.1092 1476.5989 0.0000 0.0000 1767.2617 -7504.2620 296.5905 -9271.5236 -7557.0328 298.1190 368.0585 549.2978 30415.2799 -81.2689 -3.1408
TCL: Running FEP window  13: Lambda1 0.6    Lambda2 0.65   [dLambda 0.050000000000000044]
TCL: Setting parameter firsttimestep to 0
TCL: Setting parameter alchLambda to 0.6
Info: NONBONDED TABLE R-SQUARED SPACING: 0.0625
Info: NONBONDED TABLE SIZE: 705 POINTS
TCL: Setting parameter alchLambda2 to 0.65
Info: NONBONDED TABLE R-SQUARED SPACING: 0.0625
Info: NONBONDED TABLE SIZE: 705 POINTS
TCL: Running for 1500000 steps
ETITLE: TS BOND ANGLE DIHED IMPRP ELECT VDW BOUNDARY MISC KINETIC TOTAL TEMP POTENTIAL TOTALAVG TEMPAVG PRESSURE GPRESSURE VOLUME PRESSAVG GPRESSAVG
ENERGY: 0 1.7054 11.0967 7.1846 0.0000 -10768.2108 1477.3548 0.0000 0.0000 1766.3562 -7504.5132 296.4385 -9270.8694 -7504.5132 296.4385 486.2426 564.1608 30415.2799 486.2426 564.1608
ENERGY: 300000 1.1385 11.3298 6.5301 0.0000 -10840.4312 1464.0930 0.0000 0.0000 1744.1641 -7613.1757 292.7141 -9357.3398 -7503.0023 298.4481 21.6222 44.3170 30927.9410 64.8723 128.8430
ENERGY: 600000 3.0476 18.8825 4.7923 0.0000 -10758.1558 1394.6404 0.0000 0.0000 1774.6509 -7562.1422 297.8306 -9336.7931 -7522.5142 299.3807 -199.9503 -140.1079 30197.9932 -279.6302 -208.2888
ENERGY: 900000 1.0573 8.3517 5.8113 0.0000 -10833.9225 1479.3889 0.0000 0.0000 1780.4318 -7558.8815 298.8007 -9339.3132 -7521.8823 300.0479 531.3573 470.2613 30324.3732 -26.1928 19.4835
ENERGY: 1200000 1.6169 13.1612 8.3854 0.0000 -10759.2276 1414.4037 0.0000 0.0000 1757.6248 -7564.0355 294.9732 -9321.6604 -7525.1102 298.3765 -253.4969 -157.3539 30536.4183 -8.8425 47.4440
ENERGY: 1500000 1.7255 12.0382 7.0807 0.0000 -10683.0293 1445.2737 0.0000 0.0000 1800.9352 -7415.9760 302.2417 -9216.9112 -7518.8792 298.7464 377.3112 417.7787 30707.8896 11.5950 66.8940
TCL: Running FEP window  14: Lambda1 0.65   Lambda2 0.7000000000000001 [dLambda 0.050000000000000044]
TCL: Setting parameter firsttimestep to 0
TCL: Setting parameter alchLambda to 0.65
Info: NONBONDED TABLE R-SQUARED SPACING: 0.0625
Info: NONBONDED TABLE SIZE: 705 POINTS
TCL: Setting parameter alchLambda2 to 0.7000000000000001
Info: NONBONDED TABLE R-SQUARED SPACING: 0.0625
Info: NONBONDED TABLE SIZE: 705 POINTS
TCL: Running for 1500000 steps
ETITLE: TS BOND ANGLE DIHED IMPRP ELECT VDW BOUNDARY MISC KINETIC TOTAL TEMP POTENTIAL TOTALAVG TEMPAVG PRESSURE GPRESSURE VOLUME PRESSAVG GPRESSAVG
ENERGY: 0 1.7255 12.0381 7.0807 0.0000 -10682.9997 1445.3959 0.0000 0.0000 1800.0374 -7416.7221 302.0911 -9216.7595 -7416.7221 302.0911 338.9805 428.2194 30707.8896 338.9805 428.2194
ENERGY: 300000 2.0025 13.0070 8.0900 0.0000 -10749.2828 1399.4123 0.0000 0.0000 1768.7908 -7557.9803 296.8471 -9326.7711 -7505.9701 299.9046 -619.0507 -581.1114 31192.5598 50.2973 115.1469
ENERGY: 600000 1.0983 12.4857 4.2312 0.0000 -10978.1658 1566.7533 0.0000 0.0000 1794.6243 -7598.9730 301.1826 -9393.5972 -7514.2354 299.6236 452.8451 542.6802 30957.6735 -42.5399 19.5174
ENERGY: 900000 4.8605 8.7243 6.2320 0.0000 -10861.2507 1408.6678 0.0000 0.0000 1784.2672 -7648.4989 299.4444 -9432.7661 -7524.8394 299.8468 -496.8187 -394.7918 30342.6918 -126.7284 -55.1416
ENERGY: 1200000 1.2605 11.6063 6.2326 0.0000 -10853.0912 1449.1029 0.0000 0.0000 1778.6340 -7606.2550 298.4990 -9384.8890 -7525.7012 299.3493 -42.5114 -14.1088 30536.7825 -156.9219 -85.3047
ENERGY: 1500000 1.6055 12.4468 7.8843 0.0000 -10737.0779 1378.3813 0.0000 0.0000 1808.5550 -7528.2050 303.5205 -9336.7600 -7531.6412 300.0519 -705.1470 -572.8964 31418.0619 -208.2345 -132.9510
TCL: Running FEP window  15: Lambda1 0.7000000000000001 Lambda2 0.7500000000000001 [dLambda 0.050000000000000044]
TCL: Setting parameter firsttimestep to 0
TCL: Setting parameter alchLambda to 0.7000000000000001
Info: NONBONDED TABLE R-SQUARED SPACING: 0.0625
Info: NONBONDED TABLE SIZE: 705 POINTS
TCL: Setting parameter alchLambda2 to 0.7500000000000001
Info: NONBONDED TABLE R-SQUARED SPACING: 0.0625
Info: NONBONDED TABLE SIZE: 705 POINTS
TCL: Running for 1500000 steps
ETITLE: TS BOND ANGLE DIHED IMPRP ELECT VDW BOUNDARY MISC KINETIC TOTAL TEMP POTENTIAL TOTALAVG TEMPAVG PRESSURE GPRESSURE VOLUME PRESSAVG GPRESSAVG
ENERGY: 0 1.6055 12.4468 7.8843 0.0000 -10737.0317 1378.2491 0.0000 0.0000 1807.6736 -7529.1723 303.3726 -9336.8459 -7529.1723 303.3726 -645.7379 -568.8788 31418.0619 -645.7379 -568.8788
ENERGY: 300000 1.3329 12.9522 7.0909 0.0000 -10841.1860 1481.9208 0.0000 0.0000 1794.6700 -7543.2192 301.1903 -9337.8892 -7492.8275 306.1776 19.0926 26.9332 31175.5251 -160.7818 -111.8478
ENERGY: 600000 2.8731 13.3221 5.9282 0.0000 -10769.9535 1536.4104 0.0000 0.0000 1781.6957 -7429.7240 299.0129 -9211.4197 -7494.6439 307.0123 876.0091 949.4071 30825.6023 265.6769 321.1833
ENERGY: 900000 2.3666 10.7475 8.7797 0.0000 -10845.3378 1480.5965 0.0000 0.0000 1848.3516 -7494.4959 310.1994 -9342.8475 -7508.1296 305.0052 -118.9856 12.3824 31052.2643 37.4170 93.8450
ENERGY: 1200000 2.1556 11.6352 8.5360 0.0000 -10719.3321 1416.7250 0.0000 0.0000 1756.9733 -7523.3069 294.8638 -9280.2802 -7506.0733 303.9997 -243.3938 -203.7729 30966.6294 -29.0782 29.5751
ENERGY: 1500000 2.4476 14.6614 5.9295 0.0000 -10782.2416 1526.9289 0.0000 0.0000 1780.5010 -7451.7732 298.8124 -9232.2742 -7506.2909 302.6120 687.9279 772.4500 31187.6490 33.5761 91.8164
TCL: Running FEP window  16: Lambda1 0.7500000000000001 Lambda2 0.8000000000000002 [dLambda 0.050000000000000044]
TCL: Setting parameter firsttimestep to 0
TCL: Setting parameter alchLambda to 0.7500000000000001
Info: NONBONDED TABLE R-SQUARED SPACING: 0.0625
Info: NONBONDED TABLE SIZE: 705 POINTS
TCL: Setting parameter alchLambda2 to 0.8000000000000002
Info: NONBONDED TABLE R-SQUARED SPACING: 0.0625
Info: NONBONDED TABLE SIZE: 705 POINTS
TCL: Running for 1500000 steps
ETITLE: TS BOND ANGLE DIHED IMPRP ELECT VDW BOUNDARY MISC KINETIC TOTAL TEMP POTENTIAL TOTALAVG TEMPAVG PRESSURE GPRESSURE VOLUME PRESSAVG GPRESSAVG
ENERGY: 0 2.4476 14.6614 5.9295 0.0000 -10782.1844 1526.5503 0.0000 0.0000 1779.5739 -7453.0218 298.6568 -9232.5957 -7453.0218 298.6568 702.6816 780.6399 31187.6490 702.6816 780.6399
ENERGY: 300000 2.5104 15.6441 7.8735 0.0000 -10794.4983 1442.8115 0.0000 0.0000 1830.4949 -7495.1639 307.2026 -9325.6588 -7486.1862 304.3280 -241.1655 -169.9348 31179.8531 78.2676 117.4909
ENERGY: 600000 2.6468 12.7798 6.9541 0.0000 -10926.6702 1562.6566 0.0000 0.0000 1829.6812 -7511.9516 307.0660 -9341.6328 -7497.7550 303.8747 842.0588 901.0058 30659.1189 242.0090 277.6656
ENERGY: 900000 1.3939 13.0662 7.1362 0.0000 -10744.9234 1402.5221 0.0000 0.0000 1785.6766 -7535.1285 299.6809 -9320.8051 -7514.2930 303.0787 -345.3603 -274.7397 30879.8582 81.8458 135.1345
ENERGY: 1200000 0.5795 17.5700 7.5850 0.0000 -10774.9746 1495.1880 0.0000 0.0000 1739.4380 -7514.6141 291.9210 -9254.0521 -7511.0618 302.3114 400.9650 522.1771 31115.3460 90.4211 150.7755
ENERGY: 1500000 2.1163 11.8851 9.9981 0.0000 -10878.3004 1501.4276 0.0000 0.0000 1791.4091 -7561.4642 300.6430 -9352.8733 -7508.9513 302.1586 324.6827 385.1831 30809.4771 90.7017 150.2287
TCL: Running FEP window  17: Lambda1 0.8000000000000002 Lambda2 0.8500000000000002 [dLambda 0.050000000000000044]
TCL: Setting parameter firsttimestep to 0
TCL: Setting parameter alchLambda to 0.8000000000000002
Info: NONBONDED TABLE R-SQUARED SPACING: 0.0625
Info: NONBONDED TABLE SIZE: 705 POINTS
TCL: Setting parameter alchLambda2 to 0.8500000000000002
Info: NONBONDED TABLE R-SQUARED SPACING: 0.0625
Info: NONBONDED TABLE SIZE: 705 POINTS
TCL: Running for 1500000 steps
ETITLE: TS BOND ANGLE DIHED IMPRP ELECT VDW BOUNDARY MISC KINETIC TOTAL TEMP POTENTIAL TOTALAVG TEMPAVG PRESSURE GPRESSURE VOLUME PRESSAVG GPRESSAVG
ENERGY: 0 2.1163 11.8851 9.9981 0.0000 -10878.4115 1502.2335 0.0000 0.0000 1790.5002 -7561.6783 300.4905 -9352.1785 -7561.6783 300.4905 319.0121 405.8818 30809.4771 319.0121 405.8818
ENERGY: 300000 2.5802 10.1921 8.8465 0.0000 -10631.0830 1344.6136 0.0000 0.0000 1812.0376 -7452.8130 304.1050 -9264.8505 -7523.1870 298.5213 -661.1873 -588.4759 30952.6234 80.9846 138.4545
ENERGY: 600000 3.7261 9.7885 4.5676 0.0000 -10789.7455 1402.7069 0.0000 0.0000 1826.4189 -7542.5375 306.5185 -9368.9563 -7546.2463 299.0066 -411.8581 -348.0364 30594.1451 62.0380 115.7046
ENERGY: 900000 1.1785 10.2596 6.9361 0.0000 -10902.9800 1468.0803 0.0000 0.0000 1845.2209 -7571.3046 309.6740 -9416.5255 -7561.1159 297.6397 242.8489 263.1823 30336.2861 42.0846 84.9501
ENERGY: 1200000 2.4614 6.5460 6.8865 0.0000 -10681.7924 1367.5690 0.0000 0.0000 1755.7623 -7542.5672 294.6606 -9298.3295 -7552.6451 298.0546 -638.4742 -572.0650 30793.4282 -34.7494 13.0496
ENERGY: 1500000 0.5797 10.7499 7.4720 0.0000 -10730.6967 1387.3195 0.0000 0.0000 1821.6294 -7502.9462 305.7147 -9324.5756 -7540.3792 299.0699 -285.7201 -277.0400 30712.1407 -76.8227 -27.1851
TCL: Running FEP window  18: Lambda1 0.8500000000000002 Lambda2 0.9000000000000002 [dLambda 0.050000000000000044]
TCL: Setting parameter firsttimestep to 0
TCL: Setting parameter alchLambda to 0.8500000000000002
Info: NONBONDED TABLE R-SQUARED SPACING: 0.0625
Info: NONBONDED TABLE SIZE: 705 POINTS
TCL: Setting parameter alchLambda2 to 0.9000000000000002
Info: NONBONDED TABLE R-SQUARED SPACING: 0.0625
Info: NONBONDED TABLE SIZE: 705 POINTS
TCL: Running for 1500000 steps
ETITLE: TS BOND ANGLE DIHED IMPRP ELECT VDW BOUNDARY MISC KINETIC TOTAL TEMP POTENTIAL TOTALAVG TEMPAVG PRESSURE GPRESSURE VOLUME PRESSAVG GPRESSAVG
ENERGY: 0 0.5797 10.7499 7.4720 0.0000 -10730.8531 1386.9582 0.0000 0.0000 1820.6877 -7504.4056 305.5567 -9325.0933 -7504.4056 305.5567 -341.1175 -268.1314 30712.1407 -341.1175 -268.1314
ENERGY: 300000 3.8910 14.2194 6.2590 0.0000 -10841.4383 1440.9880 0.0000 0.0000 1772.7081 -7603.3729 297.5045 -9376.0810 -7540.4391 300.7622 -360.9631 -270.9117 31061.5866 -421.0358 -343.7834
ENERGY: 600000 2.4409 14.0652 4.9197 0.0000 -10739.0434 1416.4400 0.0000 0.0000 1789.8257 -7511.3518 300.3773 -9301.1775 -7524.4091 301.8850 -367.7641 -315.8861 31329.8450 -300.4017 -230.4037
ENERGY: 900000 2.4947 12.9120 6.0415 0.0000 -10799.0511 1403.3692 0.0000 0.0000 1777.6067 -7596.6272 298.3266 -9374.2339 -7518.4864 302.6747 -380.7043 -369.9694 30661.1394 -207.6684 -135.6892
ENERGY: 1200000 2.1144 12.0084 8.6045 0.0000 -10710.6732 1358.6133 0.0000 0.0000 1749.2438 -7580.0888 293.5666 -9329.3326 -7517.0580 301.9076 -703.7621 -582.7250 30651.8327 -220.3360 -143.0477
ENERGY: 1500000 4.6822 13.7251 6.1161 0.0000 -10858.5905 1518.0875 0.0000 0.0000 1752.2668 -7563.7127 294.0740 -9315.9795 -7521.0089 300.6238 172.4058 299.7144 31191.6383 -216.3829 -137.2976
TCL: Running FEP window  19: Lambda1 0.9000000000000002 Lambda2 0.9500000000000003 [dLambda 0.050000000000000044]
TCL: Setting parameter firsttimestep to 0
TCL: Setting parameter alchLambda to 0.9000000000000002
Info: NONBONDED TABLE R-SQUARED SPACING: 0.0625
Info: NONBONDED TABLE SIZE: 705 POINTS
TCL: Setting parameter alchLambda2 to 0.9500000000000003
Info: NONBONDED TABLE R-SQUARED SPACING: 0.0625
Info: NONBONDED TABLE SIZE: 705 POINTS
TCL: Running for 1500000 steps
ETITLE: TS BOND ANGLE DIHED IMPRP ELECT VDW BOUNDARY MISC KINETIC TOTAL TEMP POTENTIAL TOTALAVG TEMPAVG PRESSURE GPRESSURE VOLUME PRESSAVG GPRESSAVG
ENERGY: 0 4.6822 13.7251 6.1161 0.0000 -10858.6548 1518.0294 0.0000 0.0000 1751.4004 -7564.7015 293.9286 -9316.1019 -7564.7015 293.9286 230.5981 312.6680 31191.6383 230.5981 312.6680
ENERGY: 300000 3.5346 11.6962 8.3397 0.0000 -10752.7634 1405.1827 0.0000 0.0000 1852.8676 -7471.1425 310.9573 -9324.0101 -7504.1568 301.7123 -168.6671 -122.6744 30453.2026 79.3592 132.6891
ENERGY: 600000 3.5811 7.8678 9.6920 0.0000 -10841.0225 1494.4171 0.0000 0.0000 1784.1632 -7541.3013 299.4270 -9325.4645 -7524.0834 299.8477 -41.6220 53.6893 31304.7869 -96.3977 -34.8929
ENERGY: 900000 1.2503 15.5807 5.8025 0.0000 -10786.5301 1436.3539 0.0000 0.0000 1729.9086 -7597.6342 290.3217 -9327.5427 -7520.5017 299.8288 -61.8474 86.0261 30876.3926 -141.6041 -79.4315
ENERGY: 1200000 0.7422 12.1911 7.5570 0.0000 -10655.8634 1338.3876 0.0000 0.0000 1807.4429 -7489.5426 303.3339 -9296.9855 -7521.8076 300.1347 -797.9678 -761.6212 30871.3595 -297.4056 -234.0807
ENERGY: 1500000 1.5521 20.5644 5.5610 0.0000 -10866.3606 1488.7037 0.0000 0.0000 1737.4593 -7612.5201 291.5889 -9349.9794 -7528.1361 299.8230 195.0467 216.0693 30961.2746 -190.5212 -129.4641
TCL: Running FEP window  20: Lambda1 0.9500000000000003 Lambda2 1.0    [dLambda 0.04999999999999971]
TCL: Setting parameter firsttimestep to 0
TCL: Setting parameter alchLambda to 0.9500000000000003
Info: NONBONDED TABLE R-SQUARED SPACING: 0.0625
Info: NONBONDED TABLE SIZE: 705 POINTS
TCL: Setting parameter alchLambda2 to 1.0
Info: NONBONDED TABLE R-SQUARED SPACING: 0.0625
Info: NONBONDED TABLE SIZE: 705 POINTS
TCL: Running for 1500000 steps
ETITLE: TS BOND ANGLE DIHED IMPRP ELECT VDW BOUNDARY MISC KINETIC TOTAL TEMP POTENTIAL TOTALAVG TEMPAVG PRESSURE GPRESSURE VOLUME PRESSAVG GPRESSAVG
ENERGY: 0 1.5521 20.5644 5.5610 0.0000 -10866.3575 1489.1717 0.0000 0.0000 1736.5645 -7612.9438 291.4387 -9349.5083 -7612.9438 291.4387 168.0448 242.4966 30961.2746 168.0448 242.4966
ENERGY: 300000 3.6488 15.9677 7.1949 0.0000 -10869.3634 1473.6831 0.0000 0.0000 1813.9260 -7554.9430 304.4219 -9368.8690 -7542.9065 300.1193 -82.8863 -40.2555 31070.4716 -10.9736 65.6026
ENERGY: 600000 2.4684 10.6084 7.2435 0.0000 -10847.2706 1494.6414 0.0000 0.0000 1803.8731 -7528.4359 302.7348 -9332.3089 -7513.0584 302.0428 628.3894 655.2979 30527.1852 -54.6560 6.3675
ENERGY: 900000 3.6562 9.9167 6.2855 0.0000 -10796.8308 1447.1283 0.0000 0.0000 1772.3899 -7557.4542 297.4511 -9329.8441 -7519.7194 301.9103 -102.2397 -44.7578 31095.2598 -167.6724 -98.7244
ENERGY: 1200000 1.4981 7.5495 7.6502 0.0000 -10966.6696 1514.6374 0.0000 0.0000 1739.1648 -7696.1696 291.8751 -9435.3344 -7537.5002 300.2659 366.7599 405.2255 30597.0347 -88.2350 -31.6315
ENERGY: 1500000 2.3550 9.1746 8.3352 0.0000 -10659.7692 1327.3173 0.0000 0.0000 1765.2885 -7547.2986 296.2593 -9312.5871 -7540.0232 300.0148 -840.8067 -833.5928 30729.0258 -92.1893 -40.0954
TCL: Exiting due to exit command.
