Info: SIMULATION PARAMETERS:
Info: TIMESTEP               2
Info: NUMBER OF STEPS        0
Info: STEPS PER CYCLE        10
Info: PERIODIC CELL BASIS 1  28.1154 0 0
Info: PERIODIC CELL BASIS 2  0 33.2276 0
Info: PERIODIC CELL BASIS 3  0 0 32.1612
Info: PERIODIC CELL CENTER   0 0 0
Info: WRAPPING WATERS AROUND PERIODIC BOUNDARIES ON OUTPUT.
Info: WRAPPING ALL CLUSTERS AROUND PERIODIC BOUNDARIES ON OUTPUT.
Info: FIRST LDB TIMESTEP     50
Info: LAST LDB TIMESTEP     -1
Info: HOM BACKGROUND SCALING 1
Info: PME BACKGROUND SCALING 1
Info: MIN ATOMS PER PATCH    40
Info: EMPTY PATCH LOAD       40 ATOMS
Info: VELOCITY FILE          mobley_1502181_equil.vel
Info: CENTER OF MASS MOVING INITIALLY? NO
Info: DIELECTRIC             1
Info: EXCLUDE                SCALED ONE-FOUR
Info: 1-4 ELECTROSTATICS SCALED BY 0.833333
Info: MODIFIED 1-4 VDW PARAMETERS WILL BE USED
Info: DCD FILENAME           mobley_1502181_prod.dcd
Info: DCD FREQUENCY          100000
Info: DCD FIRST STEP         100000
Info: DCD FILE WILL CONTAIN UNIT CELL DATA
Info: XST FILENAME           mobley_1502181_prod.xst
Info: XST FREQUENCY          100000
Info: NO VELOCITY DCD OUTPUT
Info: NO FORCE DCD OUTPUT
Info: OUTPUT FILENAME        mobley_1502181_prod
Info: BINARY OUTPUT FILES WILL BE USED
Info: RESTART FILENAME       mobley_1502181_prod.restart
Info: RESTART FREQUENCY      100000
Info: BINARY RESTART FILES WILL BE USED
Info: CUTOFF                 9
Info: PAIRLIST DISTANCE      11
Info: PAIRLIST SHRINK RATE   0.01
Info: PAIRLIST GROW RATE     0.01
Info: PAIRLIST TRIGGER       0.3
Info: PAIRLISTS PER CYCLE    2
Info: PAIRLISTS ENABLED
Info: MARGIN                 2
Info: HYDROGEN GROUP CUTOFF  2.5
Info: PATCH DIMENSION        15.5
Info: ENERGY OUTPUT STEPS    100000
Info: ENERGY EVALUATION STEPS    100000
Info: OUTPUT ENERGY PRECISION 4
Info: CROSSTERM ENERGY INCLUDED IN DIHEDRAL
Info: TIMING OUTPUT STEPS    1000000
Info: PRESSURE OUTPUT STEPS  100000
Info: ALCHEMICAL FEP ON
Info: FEP CURRENT LAMBDA VALUE     0
Info: FEP COMPARISON LAMBDA VALUE  0.05
Info: FEP INTRA-ALCHEMICAL NON-BONDED INTERACTIONS WILL BE RETAINED
Info: FEP INTRA-ALCHEMICAL BONDED INTERACTIONS WILL BE RETAINED
Info: FEP VDW SHIFTING COEFFICIENT 5
Info: FEP ELEC. ACTIVE FOR ANNIHILATED PARTICLES BETWEEN LAMBDA = 0 AND LAMBDA = 0.5
Info: FEP ELEC. ACTIVE FOR EXNIHILATED PARTICLES BETWEEN LAMBDA = 0.5 AND LAMBDA = 1
Info: FEP VDW ACTIVE FOR ANNIHILATED PARTICLES BETWEEN LAMBDA = 0 AND LAMBDA = 1
Info: FEP VDW ACTIVE FOR EXNIHILATED PARTICLES BETWEEN LAMBDA = 0 AND LAMBDA = 1
Info: FEP BOND ACTIVE FOR ANNIHILATED PARTICLES BETWEEN LAMBDA = 1 AND LAMBDA = 1
Info: FEP BOND ACTIVE FOR EXNIHILATED PARTICLES BETWEEN LAMBDA = 0 AND LAMBDA = 0
Info: LANGEVIN DYNAMICS ACTIVE
Info: LANGEVIN TEMPERATURE   300
Info: LANGEVIN USING BBK INTEGRATOR
Info: LANGEVIN DAMPING COEFFICIENT IS 1 INVERSE PS
Info: LANGEVIN DYNAMICS APPLIED TO HYDROGENS
Info: LANGEVIN PISTON PRESSURE CONTROL ACTIVE
Info:        TARGET PRESSURE IS 1.01325 BAR
Info:     OSCILLATION PERIOD IS 50 FS
Info:             DECAY TIME IS 25 FS
Info:     PISTON TEMPERATURE IS 300 K
Info:       PRESSURE CONTROL IS GROUP-BASED
Info:    INITIAL STRAIN RATE IS 0.000597077 0.000597077 0.000597077
Info:       CELL FLUCTUATION IS ISOTROPIC
Info: PARTICLE MESH EWALD (PME) ACTIVE
Info: PME TOLERANCE               1e-06
Info: PME EWALD COEFFICIENT       0.348832
Info: PME INTERPOLATION ORDER     4
Info: PME GRID DIMENSIONS         32 36 36
Info: PME MAXIMUM GRID SPACING    1
Info: PME CALCULATION WILL BE PERFORMED ON GPU
Info: FULL ELECTROSTATIC EVALUATION FREQUENCY      2
Info: USING VERLET I (r-RESPA) MTS SCHEME.
Info: C1 SPLITTING OF LONG RANGE ELECTROSTATICS
Info: PLACING ATOMS IN PATCHES BY HYDROGEN GROUPS
Info: RIGID BONDS TO HYDROGEN : ALL
Info:         ERROR TOLERANCE : 1e-08
Info:          MAX ITERATIONS : 100
Info: RIGID WATER USING SETTLE ALGORITHM
Info: RANDOM NUMBER SEED     1744071908
Info: USE HYDROGEN BONDS?    NO
Info: Using AMBER format force field!
Info: AMBER PARM FILE        mobley_1502181.prmtop
Info: COORDINATE PDB         mobley_1502181.pdb
Info: Exclusions will be read from PARM file!
Info: SCNB (VDW SCALING)     2
Info: USING ARITHMETIC MEAN TO COMBINE L-J SIGMA PARAMETERS
Info: BINARY COORDINATES     mobley_1502181_equil.coor
Info: SUMMARY OF PARAMETERS:
Info: 6 BONDS
Info: 7 ANGLES
Info:   7 HARMONIC
Info:   0 COSINE-BASED
Info: 11 DIHEDRAL
Info: 0 IMPROPER
Info: 0 CROSSTERM
Info: 0 VDW
Info: 21 VDW_PAIRS
Info: 0 NBTHOLE_PAIRS
Info: To read alchdata from file: mobley_1502181.pdb
Info: To read alchflag data from column: 5
Info: STRUCTURE SUMMARY:
Info: 2905 ATOMS
Info: 2904 BONDS
Info: 51 ANGLES
Info: 85 DIHEDRALS
Info: 0 IMPROPERS
Info: 0 CROSSTERMS
Info: 3021 EXCLUSIONS
Info: 2895 RIGID BONDS
Info: ALCH: 0 ATOMS TO DISAPPEAR IN FINAL STATE
Info: ALCH: 28 ATOMS TO APPEAR IN FINAL STATE
Info: 5820 DEGREES OF FREEDOM
Info: 969 HYDROGEN GROUPS
Info: 4 ATOMS IN LARGEST HYDROGEN GROUP
Info: 969 MIGRATION GROUPS
Info: 4 ATOMS IN LARGEST MIGRATION GROUP
Info: TOTAL MASS = 17419.6 amu
Info: TOTAL CHARGE = 0.00010002 e
Info: MASS DENSITY = 0.962767 g/cm^3
Info: ATOM DENSITY = 0.0966875 atoms/A^3
Info: ADDED 0 IMPLICIT EXCLUSIONS
Info: NONBONDED TABLE R-SQUARED SPACING: 0.0625
Info: NONBONDED TABLE SIZE: 705 POINTS
Info: REMOVING COM VELOCITY -0.148434 0.0939713 0.068622
Info: Use 3D box decompostion in PME FFT.
Info: Updated CUDA force table with 4096 elements.
Info: Updated CUDA LJ table with 6 x 6 elements.
Info: Found 31 unique exclusion lists needing 116 bytes
TCL: Running for 1500000 steps
ETITLE: TS BOND ANGLE DIHED IMPRP ELECT VDW BOUNDARY MISC KINETIC TOTAL TEMP POTENTIAL TOTALAVG TEMPAVG PRESSURE GPRESSURE VOLUME PRESSAVG GPRESSAVG
ENERGY: 0 3.8358 12.8112 6.6784 0.0000 -10516.5798 1379.4175 0.0000 0.0000 1744.1331 -7369.7037 301.6109 -9113.8368 -7369.7037 301.6109 -593.9883 -514.8461 30045.2533 -593.9883 -514.8461
ENERGY: 300000 1.2895 11.6162 10.4053 0.0000 -10394.8636 1352.3200 0.0000 0.0000 1761.8220 -7257.4107 304.6698 -9019.2326 -7311.6952 304.1913 -149.8226 -49.2614 29270.1654 -15.0591 43.9238
ENERGY: 600000 1.7501 13.6334 9.1200 0.0000 -10357.5059 1376.9055 0.0000 0.0000 1738.7210 -7217.3759 300.6750 -8956.0969 -7294.6536 304.4195 -601.4626 -515.4569 30886.2798 -254.9692 -205.5803
ENERGY: 900000 1.9341 12.5930 8.2166 0.0000 -10520.5129 1384.2317 0.0000 0.0000 1717.7440 -7395.7935 297.0475 -9113.5375 -7305.8318 302.8470 -476.0280 -444.2261 29871.8198 -173.7825 -118.6491
ENERGY: 1200000 5.1105 11.9121 8.4780 0.0000 -10518.9467 1412.7597 0.0000 0.0000 1754.3592 -7326.3271 303.3793 -9080.6863 -7299.4802 303.8490 -14.4044 126.9538 29646.9484 -199.2641 -142.5932
ENERGY: 1500000 1.0821 15.1803 8.8348 0.0000 -10363.8124 1289.5012 0.0000 0.0000 1751.3317 -7297.8822 302.8557 -9049.2139 -7298.3966 303.7429 -1118.8664 -1059.4714 29710.5536 -196.5272 -134.4778
TCL: Running FEP window   2: Lambda1 0.05   Lambda2 0.1    [dLambda 0.05  ]
TCL: Setting parameter firsttimestep to 0
TCL: Setting parameter alchLambda to 0.05
Info: NONBONDED TABLE R-SQUARED SPACING: 0.0625
Info: NONBONDED TABLE SIZE: 705 POINTS
TCL: Setting parameter alchLambda2 to 0.1
Info: NONBONDED TABLE R-SQUARED SPACING: 0.0625
Info: NONBONDED TABLE SIZE: 705 POINTS
TCL: Running for 1500000 steps
ETITLE: TS BOND ANGLE DIHED IMPRP ELECT VDW BOUNDARY MISC KINETIC TOTAL TEMP POTENTIAL TOTALAVG TEMPAVG PRESSURE GPRESSURE VOLUME PRESSAVG GPRESSAVG
ENERGY: 0 1.0821 15.1803 8.8348 0.0000 -10363.8126 1290.1141 0.0000 0.0000 1750.5075 -7298.0937 302.7132 -9048.6012 -7298.0937 302.7132 -1142.3670 -1055.6522 29710.5536 -1142.3670 -1055.6522
ENERGY: 300000 3.5923 14.8886 7.7109 0.0000 -10706.3627 1518.2624 0.0000 0.0000 1798.9258 -7362.9826 311.0861 -9161.9085 -7325.1542 304.2408 895.8870 949.3200 28821.1652 -206.9017 -127.1829
ENERGY: 600000 3.5784 14.9253 9.9110 0.0000 -10372.5416 1309.1763 0.0000 0.0000 1763.8178 -7271.1329 305.0150 -9034.9508 -7286.5695 303.9272 -773.2444 -673.5183 29503.1847 -344.0717 -254.7509
ENERGY: 900000 3.6637 14.1284 7.7100 0.0000 -10567.7765 1450.0765 0.0000 0.0000 1773.1408 -7319.0570 306.6272 -9092.1979 -7299.1955 304.0105 309.3857 337.7894 29445.1639 -155.8303 -72.4042
ENERGY: 1200000 1.6350 13.7246 9.7761 0.0000 -10440.8999 1342.4885 0.0000 0.0000 1777.6648 -7295.6109 307.4095 -9073.2757 -7295.6126 303.5621 -693.4424 -656.6149 29600.6155 -152.0613 -85.0837
ENERGY: 1500000 2.6573 17.0340 9.8979 0.0000 -10312.6642 1343.9637 0.0000 0.0000 1712.2070 -7226.9042 296.0900 -8939.1112 -7283.8295 303.0267 -401.1685 -355.2850 29991.9937 -142.1172 -79.3103
TCL: Running FEP window   3: Lambda1 0.1    Lambda2 0.15000000000000002 [dLambda 0.05000000000000002]
TCL: Setting parameter firsttimestep to 0
TCL: Setting parameter alchLambda to 0.1
Info: NONBONDED TABLE R-SQUARED SPACING: 0.0625
Info: NONBONDED TABLE SIZE: 705 POINTS
TCL: Setting parameter alchLambda2 to 0.15000000000000002
Info: NONBONDED TABLE R-SQUARED SPACING: 0.0625
Info: NONBONDED TABLE SIZE: 705 POINTS
TCL: Running for 1500000 steps
ETITLE: TS BOND ANGLE DIHED IMPRP ELECT VDW BOUNDARY MISC KINETIC TOTAL TEMP POTENTIAL TOTALAVG TEMPAVG PRESSURE GPRESSURE VOLUME PRESSAVG GPRESSAVG
ENERGY: 0 2.6574 17.0340 9.8979 0.0000 -10312.6625 1346.1627 0.0000 0.0000 1711.4049 -7225.5056 295.9513 -8936.9106 -7225.5056 295.9513 -425.2252 -347.2182 29991.9937 -425.2252 -347.2182
ENERGY: 300000 2.3731 12.8813 9.1759 0.0000 -10459.2777 1360.6524 0.0000 0.0000 1738.4843 -7335.7107 300.6341 -9074.1950 -7291.7209 299.6093 -646.1176 -608.0850 29937.2672 -506.6523 -429.6927
ENERGY: 600000 2.1959 18.4818 9.4826 0.0000 -10400.8173 1362.4871 0.0000 0.0000 1663.7520 -7344.4180 287.7107 -9008.1700 -7304.9529 297.5707 -446.8188 -444.0665 29921.5305 -482.8219 -417.8932
ENERGY: 900000 1.8686 14.8888 8.4245 0.0000 -10668.3080 1623.7817 0.0000 0.0000 1781.6452 -7237.6993 308.0978 -9019.3444 -7304.9488 299.3147 1728.8973 1750.4685 29925.8286 -209.0692 -143.2654
ENERGY: 1200000 2.6598 13.9784 7.2669 0.0000 -10440.2791 1344.1558 0.0000 0.0000 1723.2000 -7349.0183 297.9909 -9072.2182 -7309.9963 299.3087 -864.4256 -729.7516 29626.3130 -284.6690 -209.3823
ENERGY: 1500000 2.0372 21.5179 8.5635 0.0000 -10314.2496 1320.2461 0.0000 0.0000 1786.5705 -7175.3145 308.9495 -8961.8850 -7304.2184 300.8198 -256.5562 -259.7922 29822.2052 -235.1508 -167.3591
TCL: Running FEP window   4: Lambda1 0.15000000000000002 Lambda2 0.2    [dLambda 0.04999999999999999]
TCL: Setting parameter firsttimestep to 0
TCL: Setting parameter alchLambda to 0.15000000000000002
Info: NONBONDED TABLE R-SQUARED SPACING: 0.0625
Info: NONBONDED TABLE SIZE: 705 POINTS
TCL: Setting parameter alchLambda2 to 0.2
Info: NONBONDED TABLE R-SQUARED SPACING: 0.0625
Info: NONBONDED TABLE SIZE: 705 POINTS
TCL: Running for 1500000 steps
ETITLE: TS BOND ANGLE DIHED IMPRP ELECT VDW BOUNDARY MISC KINETIC TOTAL TEMP POTENTIAL TOTALAVG TEMPAVG PRESSURE GPRESSURE VOLUME PRESSAVG GPRESSAVG
ENERGY: 0 2.0372 21.5179 8.5635 0.0000 -10314.2493 1320.5592 0.0000 0.0000 1785.6766 -7175.8949 308.7950 -8961.5715 -7175.8949 308.7950 -331.7387 -255.7872 29822.2052 -331.7387 -255.7872
ENERGY: 300000 3.0463 14.0575 9.2990 0.0000 -10370.8844 1322.0595 0.0000 0.0000 1720.5882 -7301.8339 297.5393 -9022.4222 -7294.3096 300.9022 -794.2346 -695.3196 29915.4814 -340.2009 -277.2903
ENERGY: 600000 1.4421 13.1068 6.3803 0.0000 -10452.2839 1404.4976 0.0000 0.0000 1707.7005 -7319.1567 295.3107 -9026.8572 -7312.2124 299.0249 -116.6627 17.3639 29422.4216 -120.8387 -54.7445
ENERGY: 900000 4.8738 14.9651 8.7244 0.0000 -10272.0072 1260.6298 0.0000 0.0000 1749.3273 -7233.4868 302.5091 -8982.8141 -7303.4429 299.3682 -986.1307 -919.5745 29963.7822 -105.5333 -52.4715
ENERGY: 1200000 2.0786 13.2104 7.8262 0.0000 -10546.7374 1450.2329 0.0000 0.0000 1791.4762 -7281.9130 309.7979 -9073.3893 -7302.9830 300.0548 322.5226 364.6542 29629.1721 -185.1403 -124.2648
ENERGY: 1500000 4.3176 12.5453 8.3947 0.0000 -10507.0370 1466.6653 0.0000 0.0000 1751.6394 -7263.4748 302.9089 -9015.1142 -7301.1916 300.2906 411.0370 500.9183 29539.7086 -141.0235 -79.3037
TCL: Running FEP window   5: Lambda1 0.2    Lambda2 0.25   [dLambda 0.04999999999999999]
TCL: Setting parameter firsttimestep to 0
TCL: Setting parameter alchLambda to 0.2
Info: NONBONDED TABLE R-SQUARED SPACING: 0.0625
Info: NONBONDED TABLE SIZE: 705 POINTS
TCL: Setting parameter alchLambda2 to 0.25
Info: NONBONDED TABLE R-SQUARED SPACING: 0.0625
Info: NONBONDED TABLE SIZE: 705 POINTS
TCL: Running for 1500000 steps
ETITLE: TS BOND ANGLE DIHED IMPRP ELECT VDW BOUNDARY MISC KINETIC TOTAL TEMP POTENTIAL TOTALAVG TEMPAVG PRESSURE GPRESSURE VOLUME PRESSAVG GPRESSAVG
ENERGY: 0 4.3175 12.5453 8.3947 0.0000 -10507.0373 1466.8219 0.0000 0.0000 1750.7911 -7264.1667 302.7623 -9014.9579 -7264.1667 302.7623 420.9137 503.9280 29539.7086 420.9137 503.9280
ENERGY: 300000 1.7631 10.6453 6.1827 0.0000 -10511.7977 1432.1629 0.0000 0.0000 1842.4930 -7218.5506 318.6202 -9061.0437 -7226.9907 308.6246 -51.1175 -41.0388 30114.9351 -25.2062 10.6144
ENERGY: 600000 4.1248 18.0596 8.6957 0.0000 -10426.6245 1369.8425 0.0000 0.0000 1725.6607 -7300.2412 298.4165 -9025.9018 -7275.0664 305.1873 -331.8862 -240.9604 29590.7281 -65.4044 -13.8435
ENERGY: 900000 2.8317 14.9481 8.0226 0.0000 -10401.1104 1337.1261 0.0000 0.0000 1730.8673 -7307.3146 299.3169 -9038.1819 -7276.6971 303.3581 -472.5353 -394.7900 29534.8042 -78.4631 -23.2309
ENERGY: 1200000 7.7323 13.1475 8.0097 0.0000 -10580.1390 1452.4116 0.0000 0.0000 1676.6167 -7422.2212 289.9354 -9098.8379 -7291.1915 301.5303 219.7910 217.4380 29404.1708 -151.5285 -105.4489
ENERGY: 1500000 4.5027 10.7771 6.6103 0.0000 -10472.0845 1385.0365 0.0000 0.0000 1767.6755 -7297.4824 305.6821 -9065.1579 -7298.8241 301.6610 -340.2410 -274.8706 29906.4358 -212.9135 -164.6733
TCL: Running FEP window   6: Lambda1 0.25   Lambda2 0.3    [dLambda 0.04999999999999999]
TCL: Setting parameter firsttimestep to 0
TCL: Setting parameter alchLambda to 0.25
Info: NONBONDED TABLE R-SQUARED SPACING: 0.0625
Info: NONBONDED TABLE SIZE: 705 POINTS
TCL: Setting parameter alchLambda2 to 0.3
Info: NONBONDED TABLE R-SQUARED SPACING: 0.0625
Info: NONBONDED TABLE SIZE: 705 POINTS
TCL: Running for 1500000 steps
ETITLE: TS BOND ANGLE DIHED IMPRP ELECT VDW BOUNDARY MISC KINETIC TOTAL TEMP POTENTIAL TOTALAVG TEMPAVG PRESSURE GPRESSURE VOLUME PRESSAVG GPRESSAVG
ENERGY: 0 4.5027 10.7771 6.6103 0.0000 -10472.0833 1388.0777 0.0000 0.0000 1766.7867 -7295.3288 305.5284 -9062.1155 -7295.3288 305.5284 -340.7756 -255.1480 29906.4358 -340.7756 -255.1480
ENERGY: 300000 3.1748 15.2652 8.3867 0.0000 -10453.7362 1392.5677 0.0000 0.0000 1713.0566 -7321.2853 296.2369 -9034.3418 -7311.0738 298.0908 -325.1480 -276.5121 30058.3945 -214.7160 -164.2626
ENERGY: 600000 3.5027 8.6020 9.0652 0.0000 -10466.3432 1396.3597 0.0000 0.0000 1754.1513 -7294.6622 303.3433 -9048.8136 -7322.3402 298.3123 -44.0641 -62.6453 29821.0136 -135.2139 -87.9172
ENERGY: 900000 2.0181 11.7114 8.5825 0.0000 -10569.6779 1407.8523 0.0000 0.0000 1761.7379 -7377.7756 304.6553 -9139.5135 -7328.0838 298.7991 -50.3547 -59.9539 29400.6811 -165.9032 -116.9444
ENERGY: 1200000 1.2272 10.0049 9.3043 0.0000 -10273.0934 1246.9177 0.0000 0.0000 1702.1896 -7303.4497 294.3577 -9005.6393 -7317.8354 299.7516 -1366.8701 -1332.5035 30184.6643 -303.9773 -256.6046
ENERGY: 1500000 3.5258 13.3516 7.4627 0.0000 -10430.9867 1427.4663 0.0000 0.0000 1750.2779 -7228.9024 302.6735 -8979.1804 -7304.2015 300.3064 96.2661 167.5124 29895.9590 -178.1765 -129.2436
TCL: Running FEP window   7: Lambda1 0.3    Lambda2 0.35   [dLambda 0.04999999999999999]
TCL: Setting parameter firsttimestep to 0
TCL: Setting parameter alchLambda to 0.3
Info: NONBONDED TABLE R-SQUARED SPACING: 0.0625
Info: NONBONDED TABLE SIZE: 705 POINTS
TCL: Setting parameter alchLambda2 to 0.35
Info: NONBONDED TABLE R-SQUARED SPACING: 0.0625
Info: NONBONDED TABLE SIZE: 705 POINTS
TCL: Running for 1500000 steps
ETITLE: TS BOND ANGLE DIHED IMPRP ELECT VDW BOUNDARY MISC KINETIC TOTAL TEMP POTENTIAL TOTALAVG TEMPAVG PRESSURE GPRESSURE VOLUME PRESSAVG GPRESSAVG
ENERGY: 0 3.5258 13.3516 7.4627 0.0000 -10430.9855 1427.5375 0.0000 0.0000 1749.4169 -7229.6911 302.5246 -8979.1080 -7229.6911 302.5246 96.3031 175.3013 29895.9590 96.3031 175.3013
ENERGY: 300000 3.1426 9.7978 5.7514 0.0000 -10481.7457 1460.9475 0.0000 0.0000 1713.8573 -7288.2491 296.3753 -9002.1064 -7259.4980 300.3463 178.7186 206.5639 30229.5847 -21.7894 24.7473
ENERGY: 600000 5.3921 14.0368 6.7328 0.0000 -10356.2721 1386.9699 0.0000 0.0000 1714.7196 -7228.4208 296.5245 -8943.1404 -7249.7924 299.7498 346.8302 349.4708 29552.2619 105.7472 145.6098
ENERGY: 900000 4.4519 10.3900 7.2045 0.0000 -10546.4609 1432.1757 0.0000 0.0000 1728.7392 -7363.4997 298.9488 -9092.2388 -7271.0385 299.5977 -31.2494 64.4585 29580.6613 84.2229 130.9039
ENERGY: 1200000 2.3535 12.8035 9.8439 0.0000 -10457.9080 1432.6351 0.0000 0.0000 1762.7598 -7237.5121 304.8320 -9000.2720 -7275.5997 299.6217 442.1205 531.6036 29393.5204 77.4799 129.4344
ENERGY: 1500000 2.1482 15.2891 7.2842 0.0000 -10435.9074 1361.9648 0.0000 0.0000 1732.7725 -7316.4486 299.6463 -9049.2211 -7278.0209 299.8157 -464.5361 -445.2722 29989.8487 0.3980 50.6051
TCL: Running FEP window   8: Lambda1 0.35   Lambda2 0.39999999999999997 [dLambda 0.04999999999999999]
TCL: Setting parameter firsttimestep to 0
TCL: Setting parameter alchLambda to 0.35
Info: NONBONDED TABLE R-SQUARED SPACING: 0.0625
Info: NONBONDED TABLE SIZE: 705 POINTS
TCL: Setting parameter alchLambda2 to 0.39999999999999997
Info: NONBONDED TABLE R-SQUARED SPACING: 0.0625
Info: NONBONDED TABLE SIZE: 705 POINTS
TCL: Running for 1500000 steps
ETITLE: TS BOND ANGLE DIHED IMPRP ELECT VDW BOUNDARY MISC KINETIC TOTAL TEMP POTENTIAL TOTALAVG TEMPAVG PRESSURE GPRESSURE VOLUME PRESSAVG GPRESSAVG
ENERGY: 0 2.1482 15.2891 7.2842 0.0000 -10435.9070 1362.7366 0.0000 0.0000 1731.8905 -7316.5584 299.4938 -9048.4489 -7316.5584 299.4938 -518.2149 -430.9526 29989.8487 -518.2149 -430.9526
ENERGY: 300000 2.3698 13.8618 8.1560 0.0000 -10586.1517 1466.0279 0.0000 0.0000 1708.4384 -7387.2978 295.4383 -9095.7362 -7371.8829 296.8964 212.8491 306.9143 29686.8032 -215.8076 -119.7808
ENERGY: 600000 3.1385 18.1515 6.4269 0.0000 -10427.0788 1382.5624 0.0000 0.0000 1725.2022 -7291.5974 298.3372 -9016.7995 -7328.2559 298.4837 -318.5421 -281.1433 29998.3554 -224.4432 -157.0995
ENERGY: 900000 2.5811 11.5382 8.1697 0.0000 -10669.6472 1555.2576 0.0000 0.0000 1748.5891 -7343.5115 302.3815 -9092.1006 -7327.1460 299.5832 867.3933 1008.5388 29788.8862 12.2618 94.1907
ENERGY: 1200000 5.2089 11.6883 8.1324 0.0000 -10376.4349 1306.1528 0.0000 0.0000 1760.6109 -7284.6416 304.4604 -9045.2525 -7317.9093 299.8824 -949.6416 -942.5486 29902.4708 -161.6315 -86.7943
ENERGY: 1500000 3.0161 11.2085 7.9523 0.0000 -10516.6466 1431.9039 0.0000 0.0000 1811.7790 -7250.7868 313.3088 -9062.5658 -7312.1847 300.5260 -13.9368 70.7396 30035.2107 -109.2060 -40.8184
TCL: Running FEP window   9: Lambda1 0.39999999999999997 Lambda2 0.44999999999999996 [dLambda 0.04999999999999999]
TCL: Setting parameter firsttimestep to 0
TCL: Setting parameter alchLambda to 0.39999999999999997
Info: NONBONDED TABLE R-SQUARED SPACING: 0.0625
Info: NONBONDED TABLE SIZE: 705 POINTS
TCL: Setting parameter alchLambda2 to 0.44999999999999996
Info: NONBONDED TABLE R-SQUARED SPACING: 0.0625
Info: NONBONDED TABLE SIZE: 705 POINTS
TCL: Running for 1500000 steps
ETITLE: TS BOND ANGLE DIHED IMPRP ELECT VDW BOUNDARY MISC KINETIC TOTAL TEMP POTENTIAL TOTALAVG TEMPAVG PRESSURE GPRESSURE VOLUME PRESSAVG GPRESSAVG
ENERGY: 0 3.0161 11.2085 7.9523 0.0000 -10516.6466 1432.6158 0.0000 0.0000 1810.9512 -7250.9027 313.1657 -9061.8539 -7250.9027 313.1657 1.7992 84.6106 30035.2107 1.7992 84.6106
ENERGY: 300000 2.9136 13.6121 7.0968 0.0000 -10453.7414 1368.7401 0.0000 0.0000 1780.6518 -7280.7270 307.9260 -9061.3788 -7275.8817 306.9114 -518.2673 -401.9585 29981.7511 -86.6919 -9.3253
ENERGY: 600000 3.1258 11.2564 6.7739 0.0000 -10647.5699 1526.4148 0.0000 0.0000 1683.9697 -7416.0292 291.2069 -9099.9989 -7314.2064 301.2223 667.0984 813.7982 29343.4886 160.0112 247.5901
ENERGY: 900000 1.5505 11.6482 6.3259 0.0000 -10337.6667 1370.2463 0.0000 0.0000 1714.1548 -7233.7410 296.4268 -8947.8957 -7300.0801 300.3457 -88.3814 -67.2931 30199.3157 123.9285 195.3498
ENERGY: 1200000 2.6009 15.7162 7.1816 0.0000 -10453.6269 1431.2235 0.0000 0.0000 1750.7062 -7246.1985 302.7476 -8996.9047 -7304.1751 300.3423 487.8794 505.9254 29698.2973 166.5853 230.6253
ENERGY: 1500000 3.8689 13.9928 6.1385 0.0000 -10433.5075 1446.9035 0.0000 0.0000 1696.3671 -7266.2366 293.3508 -8962.6038 -7307.0664 300.4266 181.1701 234.0886 30193.7562 196.3123 263.8161
TCL: Running FEP window  10: Lambda1 0.44999999999999996 Lambda2 0.49999999999999994 [dLambda 0.04999999999999999]
TCL: Setting parameter firsttimestep to 0
TCL: Setting parameter alchLambda to 0.44999999999999996
Info: NONBONDED TABLE R-SQUARED SPACING: 0.0625
Info: NONBONDED TABLE SIZE: 705 POINTS
TCL: Setting parameter alchLambda2 to 0.49999999999999994
Info: NONBONDED TABLE R-SQUARED SPACING: 0.0625
Info: NONBONDED TABLE SIZE: 705 POINTS
TCL: Running for 1500000 steps
ETITLE: TS BOND ANGLE DIHED IMPRP ELECT VDW BOUNDARY MISC KINETIC TOTAL TEMP POTENTIAL TOTALAVG TEMPAVG PRESSURE GPRESSURE VOLUME PRESSAVG GPRESSAVG
ENERGY: 0 3.8690 13.9928 6.1385 0.0000 -10433.5078 1447.1241 0.0000 0.0000 1695.5015 -7266.8820 293.2011 -8962.3835 -7266.8820 293.2011 176.4908 244.9263 30193.7562 176.4908 244.9263
ENERGY: 300000 3.6877 12.0676 7.7559 0.0000 -10455.3193 1426.9417 0.0000 0.0000 1772.2782 -7232.5882 306.4780 -9004.8664 -7292.8004 299.8548 161.6836 250.9171 30054.5776 124.2358 169.0323
ENERGY: 600000 2.5630 16.0062 10.4315 0.0000 -10529.9486 1437.7634 0.0000 0.0000 1715.1925 -7347.9920 296.6062 -9063.1844 -7321.6238 298.7319 -1.5169 65.9140 29737.4896 174.3778 228.5137
ENERGY: 900000 1.7058 18.5125 7.0005 0.0000 -10500.4658 1437.2159 0.0000 0.0000 1734.1944 -7301.8367 299.8922 -9036.0311 -7327.7868 298.0970 76.7480 173.3028 29922.1091 62.9745 120.0896
ENERGY: 1200000 1.3448 10.3113 6.5056 0.0000 -10539.5064 1459.3749 0.0000 0.0000 1781.9225 -7280.0472 308.1458 -9061.9697 -7323.3630 299.1791 277.2933 310.5917 30105.5139 95.4556 150.1642
ENERGY: 1500000 4.4963 15.0448 7.5637 0.0000 -10489.7689 1420.2198 0.0000 0.0000 1741.0754 -7301.3689 301.0821 -9042.4443 -7310.0363 299.7767 363.6839 406.5219 29313.5740 26.2147 75.7818
TCL: Running FEP window  11: Lambda1 0.49999999999999994 Lambda2 0.5499999999999999 [dLambda 0.04999999999999999]
TCL: Setting parameter firsttimestep to 0
TCL: Setting parameter alchLambda to 0.49999999999999994
Info: NONBONDED TABLE R-SQUARED SPACING: 0.0625
Info: NONBONDED TABLE SIZE: 705 POINTS
TCL: Setting parameter alchLambda2 to 0.5499999999999999
Info: NONBONDED TABLE R-SQUARED SPACING: 0.0625
Info: NONBONDED TABLE SIZE: 705 POINTS
TCL: Running for 1500000 steps
ETITLE: TS BOND ANGLE DIHED IMPRP ELECT VDW BOUNDARY MISC KINETIC TOTAL TEMP POTENTIAL TOTALAVG TEMPAVG PRESSURE GPRESSURE VOLUME PRESSAVG GPRESSAVG
ENERGY: 0 4.4963 15.0448 7.5637 0.0000 -10489.7689 1421.3110 0.0000 0.0000 1740.2118 -7301.1412 300.9328 -9041.3530 -7301.1412 300.9328 333.9512 425.9807 29313.5740 333.9512 425.9807
ENERGY: 300000 2.9278 19.8042 8.5432 0.0000 -10495.9276 1374.9260 0.0000 0.0000 1739.4876 -7350.2387 300.8076 -9089.7263 -7371.0034 297.6971 -319.1322 -270.6368 29631.5227 77.0105 132.0967
ENERGY: 600000 3.8641 15.7870 10.3722 0.0000 -10314.1990 1352.0677 0.0000 0.0000 1746.5859 -7185.5222 302.0350 -8932.1081 -7306.7917 299.2713 -166.6680 -156.0881 29743.5400 140.9633 194.5091
ENERGY: 900000 1.0979 11.4185 8.1247 0.0000 -10413.9094 1336.0209 0.0000 0.0000 1664.3122 -7392.9350 287.8076 -9057.2473 -7316.4326 298.7005 -812.3277 -704.8216 30278.3395 142.6948 201.0590
ENERGY: 1200000 5.1512 12.4849 7.1065 0.0000 -10336.1218 1374.1018 0.0000 0.0000 1783.4884 -7153.7890 308.4166 -8937.2774 -7297.5001 299.7184 45.5229 119.5300 29898.5691 65.5740 127.6003
ENERGY: 1500000 2.6077 15.1486 9.4511 0.0000 -10461.3829 1349.2621 0.0000 0.0000 1724.6125 -7360.3008 298.2352 -9084.9133 -7307.7326 299.3648 -818.5563 -787.3599 30252.7332 -26.5611 39.2212
TCL: Running FEP window  12: Lambda1 0.5499999999999999 Lambda2 0.6    [dLambda 0.050000000000000044]
TCL: Setting parameter firsttimestep to 0
TCL: Setting parameter alchLambda to 0.5499999999999999
Info: NONBONDED TABLE R-SQUARED SPACING: 0.0625
Info: NONBONDED TABLE SIZE: 705 POINTS
TCL: Setting parameter alchLambda2 to 0.6
Info: NONBONDED TABLE R-SQUARED SPACING: 0.0625
Info: NONBONDED TABLE SIZE: 705 POINTS
TCL: Running for 1500000 steps
ETITLE: TS BOND ANGLE DIHED IMPRP ELECT VDW BOUNDARY MISC KINETIC TOTAL TEMP POTENTIAL TOTALAVG TEMPAVG PRESSURE GPRESSURE VOLUME PRESSAVG GPRESSAVG
ENERGY: 0 2.6077 15.1486 9.4511 0.0000 -10461.5444 1349.3101 0.0000 0.0000 1723.7727 -7361.2542 298.0900 -9085.0268 -7361.2542 298.0900 -855.0922 -776.7674 30252.7332 -855.0922 -776.7674
ENERGY: 300000 3.0605 17.8061 6.8005 0.0000 -10452.7548 1350.1581 0.0000 0.0000 1755.1818 -7319.7478 303.5215 -9074.9296 -7331.3858 298.6572 -361.9533 -279.8523 29424.8586 -453.6273 -389.9294
ENERGY: 600000 2.3123 11.2604 8.1703 0.0000 -10518.2354 1390.7395 0.0000 0.0000 1765.2208 -7340.5321 305.2576 -9105.7529 -7332.0075 300.1512 -473.5664 -332.5431 30258.1801 -260.6077 -178.5003
ENERGY: 900000 0.9536 14.7953 8.9051 0.0000 -10342.7464 1354.1637 0.0000 0.0000 1701.8825 -7262.0461 294.3045 -8963.9287 -7333.3684 299.3845 -148.6208 -74.6046 30074.1997 -135.4719 -57.6349
ENERGY: 1200000 4.5686 10.2482 9.1215 0.0000 -10498.7342 1471.8951 0.0000 0.0000 1718.7076 -7284.1932 297.2141 -9002.9008 -7315.4772 299.5008 619.0650 686.1178 29827.8144 -51.5704 18.3301
ENERGY: 1500000 4.0601 7.5689 6.8620 0.0000 -10526.2140 1527.9458 0.0000 0.0000 1708.7359 -7271.0413 295.4897 -8979.7772 -7305.0662 299.8239 1130.4149 1184.0038 29973.4576 -21.9964 43.5449
TCL: Running FEP window  13: Lambda1 0.6    Lambda2 0.65   [dLambda 0.050000000000000044]
TCL: Setting parameter firsttimestep to 0
TCL: Setting parameter alchLambda to 0.6
Info: NONBONDED TABLE R-SQUARED SPACING: 0.0625
Info: NONBONDED TABLE SIZE: 705 POINTS
TCL: Setting parameter alchLambda2 to 0.65
Info: NONBONDED TABLE R-SQUARED SPACING: 0.0625
Info: NONBONDED TABLE SIZE: 705 POINTS
TCL: Running for 1500000 steps
ETITLE: TS BOND ANGLE DIHED IMPRP ELECT VDW BOUNDARY MISC KINETIC TOTAL TEMP POTENTIAL TOTALAVG TEMPAVG PRESSURE GPRESSURE VOLUME PRESSAVG GPRESSAVG
ENERGY: 0 4.0601 7.5689 6.8620 0.0000 -10526.5428 1528.1002 0.0000 0.0000 1707.8326 -7272.1190 295.3335 -8979.9516 -7272.1190 295.3335 1105.8387 1191.2785 29973.4576 1105.8387 1191.2785
ENERGY: 300000 4.4799 17.7671 8.4637 0.0000 -10601.6433 1443.0279 0.0000 0.0000 1740.5464 -7387.3583 300.9907 -9127.9047 -7291.7566 303.3017 440.7772 498.0240 29432.3918 16.0125 88.3955
ENERGY: 600000 2.1423 16.7939 7.7764 0.0000 -10449.3390 1328.3855 0.0000 0.0000 1709.4854 -7384.7555 295.6193 -9094.2409 -7320.4044 299.3635 -948.5502 -884.6018 29845.6537 -255.3136 -194.1174
ENERGY: 900000 4.6849 11.5668 7.6989 0.0000 -10560.4617 1468.9440 0.0000 0.0000 1741.7866 -7325.7806 301.2051 -9067.5672 -7318.0199 299.8548 137.2952 243.7928 29988.6196 -94.5507 -28.6802
ENERGY: 1200000 5.0106 11.2077 8.2957 0.0000 -10325.6171 1310.7203 0.0000 0.0000 1706.4418 -7283.9409 295.0930 -8990.3827 -7316.9683 299.6954 -556.1931 -484.5669 29744.4492 -72.4617 -11.1838
ENERGY: 1500000 3.3864 11.6677 6.8034 0.0000 -10409.5215 1348.6605 0.0000 0.0000 1738.9172 -7300.0864 300.7089 -9039.0036 -7313.6888 299.8000 -449.3635 -387.7507 29873.2438 -37.1075 23.7267
TCL: Running FEP window  14: Lambda1 0.65   Lambda2 0.7000000000000001 [dLambda 0.050000000000000044]
TCL: Setting parameter firsttimestep to 0
TCL: Setting parameter alchLambda to 0.65
Info: NONBONDED TABLE R-SQUARED SPACING: 0.0625
Info: NONBONDED TABLE SIZE: 705 POINTS
TCL: Setting parameter alchLambda2 to 0.7000000000000001
Info: NONBONDED TABLE R-SQUARED SPACING: 0.0625
Info: NONBONDED TABLE SIZE: 705 POINTS
TCL: Running for 1500000 steps
ETITLE: TS BOND ANGLE DIHED IMPRP ELECT VDW BOUNDARY MISC KINETIC TOTAL TEMP POTENTIAL TOTALAVG TEMPAVG PRESSURE GPRESSURE VOLUME PRESSAVG GPRESSAVG
ENERGY: 0 3.3864 11.6677 6.8034 0.0000 -10408.8662 1348.7283 0.0000 0.0000 1738.0603 -7300.2201 300.5607 -9038.2804 -7300.2201 300.5607 -446.3658 -375.1029 29873.2438 -446.3658 -375.1029
ENERGY: 300000 3.8967 15.6154 7.2786 0.0000 -10723.1752 1581.3083 0.0000 0.0000 1730.0107 -7385.0654 299.1687 -9115.0761 -7346.3838 300.0421 1283.1236 1348.8282 29282.0598 335.1977 409.5137
ENERGY: 600000 1.2428 13.1450 7.7566 0.0000 -10553.6863 1420.2768 0.0000 0.0000 1741.2850 -7369.9801 301.1184 -9111.2651 -7331.2242 300.4135 -366.2812 -282.4956 29943.7190 185.8755 256.0312
ENERGY: 900000 3.3584 6.7908 6.9820 0.0000 -10528.9507 1472.5395 0.0000 0.0000 1731.2437 -7308.0363 299.3820 -9039.2800 -7328.5241 299.5301 551.2007 611.9927 29858.1551 195.0083 261.8171
ENERGY: 1200000 2.6804 14.0060 9.4652 0.0000 -10451.6254 1350.9836 0.0000 0.0000 1686.0291 -7388.4612 291.5630 -9074.4903 -7332.4963 299.1844 -487.0397 -390.6200 29607.3308 31.4162 97.4629
ENERGY: 1500000 1.0967 11.4644 8.0278 0.0000 -10430.0588 1428.8410 0.0000 0.0000 1779.9935 -7200.6355 307.8122 -8980.6290 -7324.0187 299.8369 172.8918 229.0923 30387.7290 -13.0803 50.7475
TCL: Running FEP window  15: Lambda1 0.7000000000000001 Lambda2 0.7500000000000001 [dLambda 0.050000000000000044]
TCL: Setting parameter firsttimestep to 0
TCL: Setting parameter alchLambda to 0.7000000000000001
Info: NONBONDED TABLE R-SQUARED SPACING: 0.0625
Info: NONBONDED TABLE SIZE: 705 POINTS
TCL: Setting parameter alchLambda2 to 0.7500000000000001
Info: NONBONDED TABLE R-SQUARED SPACING: 0.0625
Info: NONBONDED TABLE SIZE: 705 POINTS
TCL: Running for 1500000 steps
ETITLE: TS BOND ANGLE DIHED IMPRP ELECT VDW BOUNDARY MISC KINETIC TOTAL TEMP POTENTIAL TOTALAVG TEMPAVG PRESSURE GPRESSURE VOLUME PRESSAVG GPRESSAVG
ENERGY: 0 1.0967 11.4643 8.0278 0.0000 -10430.3894 1429.2603 0.0000 0.0000 1779.0665 -7201.4738 307.6519 -8980.5403 -7201.4738 307.6519 154.8136 244.6837 30387.7290 154.8136 244.6837
ENERGY: 300000 0.7298 9.2625 8.1302 0.0000 -10406.5326 1376.1660 0.0000 0.0000 1734.2793 -7277.9648 299.9069 -9012.2441 -7306.0678 302.2329 -22.9106 -22.0593 29954.4600 108.4564 164.5159
ENERGY: 600000 4.6677 11.2886 10.5401 0.0000 -10544.2075 1400.2173 0.0000 0.0000 1761.1460 -7356.3479 304.5529 -9117.4939 -7314.0430 301.4823 -67.4000 -77.0004 29509.2060 -13.7549 29.4544
ENERGY: 900000 2.9984 14.1419 5.7990 0.0000 -10490.7671 1398.1178 0.0000 0.0000 1695.6568 -7374.0531 293.2279 -9069.7100 -7323.3897 300.7446 -395.2994 -354.1389 30665.5876 -79.5528 -35.7908
ENERGY: 1200000 2.3461 16.7205 8.1064 0.0000 -10448.3258 1349.9779 0.0000 0.0000 1728.6879 -7342.4871 298.9400 -9071.1749 -7333.8126 299.8648 -334.8879 -264.6592 29680.4934 -30.4754 22.7756
ENERGY: 1500000 1.7894 10.2003 6.8809 0.0000 -10602.7449 1495.1901 0.0000 0.0000 1728.0674 -7360.6168 298.8327 -9088.6842 -7321.8668 299.7702 742.5983 783.0249 29644.2793 42.0983 95.9893
TCL: Running FEP window  16: Lambda1 0.7500000000000001 Lambda2 0.8000000000000002 [dLambda 0.050000000000000044]
TCL: Setting parameter firsttimestep to 0
TCL: Setting parameter alchLambda to 0.7500000000000001
Info: NONBONDED TABLE R-SQUARED SPACING: 0.0625
Info: NONBONDED TABLE SIZE: 705 POINTS
TCL: Setting parameter alchLambda2 to 0.8000000000000002
Info: NONBONDED TABLE R-SQUARED SPACING: 0.0625
Info: NONBONDED TABLE SIZE: 705 POINTS
TCL: Running for 1500000 steps
ETITLE: TS BOND ANGLE DIHED IMPRP ELECT VDW BOUNDARY MISC KINETIC TOTAL TEMP POTENTIAL TOTALAVG TEMPAVG PRESSURE GPRESSURE VOLUME PRESSAVG GPRESSAVG
ENERGY: 0 1.7894 10.2003 6.8809 0.0000 -10603.2503 1495.0029 0.0000 0.0000 1727.2049 -7362.1719 298.6835 -9089.3768 -7362.1719 298.6835 725.1562 795.2989 29644.2793 725.1562 795.2989
ENERGY: 300000 2.4322 11.7836 8.3159 0.0000 -10435.7154 1345.6797 0.0000 0.0000 1757.5598 -7309.9441 303.9328 -9067.5039 -7342.6274 300.3023 -563.5732 -485.6427 29939.9202 -60.2209 16.9408
ENERGY: 600000 2.7811 11.2137 7.9796 0.0000 -10496.1845 1410.7589 0.0000 0.0000 1783.4232 -7280.0280 308.4053 -9063.4512 -7330.9387 300.5209 39.4977 62.4019 30137.3544 -122.1230 -44.4851
ENERGY: 900000 0.8927 11.7880 8.8710 0.0000 -10484.9252 1428.2335 0.0000 0.0000 1744.2278 -7290.9121 301.6273 -9035.1400 -7327.4604 301.0085 67.2444 191.2409 29946.1405 -107.0477 -38.6978
ENERGY: 1200000 1.8291 18.9181 6.9004 0.0000 -10477.2985 1362.3009 0.0000 0.0000 1745.5379 -7341.8120 301.8538 -9087.3499 -7340.9328 299.8743 -350.0471 -297.6099 29767.7526 -112.6334 -51.4620
ENERGY: 1500000 1.3459 13.9069 7.4828 0.0000 -10478.1772 1334.7233 0.0000 0.0000 1716.9073 -7403.8111 296.9028 -9120.7184 -7337.0654 301.4702 -777.9377 -729.0745 29733.6463 -109.2530 -49.6170
TCL: Running FEP window  17: Lambda1 0.8000000000000002 Lambda2 0.8500000000000002 [dLambda 0.050000000000000044]
TCL: Setting parameter firsttimestep to 0
TCL: Setting parameter alchLambda to 0.8000000000000002
Info: NONBONDED TABLE R-SQUARED SPACING: 0.0625
Info: NONBONDED TABLE SIZE: 705 POINTS
TCL: Setting parameter alchLambda2 to 0.8500000000000002
Info: NONBONDED TABLE R-SQUARED SPACING: 0.0625
Info: NONBONDED TABLE SIZE: 705 POINTS
TCL: Running for 1500000 steps
ETITLE: TS BOND ANGLE DIHED IMPRP ELECT VDW BOUNDARY MISC KINETIC TOTAL TEMP POTENTIAL TOTALAVG TEMPAVG PRESSURE GPRESSURE VOLUME PRESSAVG GPRESSAVG
ENERGY: 0 1.3459 13.9069 7.4828 0.0000 -10479.4315 1333.9975 0.0000 0.0000 1716.0431 -7406.6554 296.7533 -9122.6985 -7406.6554 296.7533 -811.5698 -726.1257 29733.6463 -811.5698 -726.1257
ENERGY: 300000 3.5421 9.9175 8.1198 0.0000 -10340.4171 1307.3611 0.0000 0.0000 1751.1732 -7260.3034 302.8283 -9011.4767 -7318.2405 301.2016 -966.9134 -870.2983 30365.2440 -416.8997 -362.6225
ENERGY: 600000 5.0285 19.9660 7.0315 0.0000 -10499.5518 1417.0111 0.0000 0.0000 1775.7439 -7274.7708 307.0773 -9050.5147 -7307.1828 301.4918 -263.3479 -214.1511 30138.5389 -342.7605 -303.3073
ENERGY: 900000 2.1954 17.6890 5.9744 0.0000 -10565.2138 1371.2768 0.0000 0.0000 1694.7804 -7473.2977 293.0764 -9168.0782 -7344.5794 299.4745 -322.3869 -286.3936 29109.6990 -274.7987 -224.5586
ENERGY: 1200000 1.6459 12.6034 7.4224 0.0000 -10413.8945 1284.4341 0.0000 0.0000 1722.9683 -7384.8204 297.9509 -9107.7887 -7343.1585 299.9102 -1113.6077 -1029.8301 29903.6959 -352.7904 -296.8860
ENERGY: 1500000 2.7950 14.8970 10.1164 0.0000 -10453.9345 1391.5951 0.0000 0.0000 1759.9439 -7274.5870 304.3450 -9034.5309 -7333.2235 300.8231 304.3899 327.0227 29395.6799 -231.9837 -182.1570
TCL: Running FEP window  18: Lambda1 0.8500000000000002 Lambda2 0.9000000000000002 [dLambda 0.050000000000000044]
TCL: Setting parameter firsttimestep to 0
TCL: Setting parameter alchLambda to 0.8500000000000002
Info: NONBONDED TABLE R-SQUARED SPACING: 0.0625
Info: NONBONDED TABLE SIZE: 705 POINTS
TCL: Setting parameter alchLambda2 to 0.9000000000000002
Info: NONBONDED TABLE R-SQUARED SPACING: 0.0625
Info: NONBONDED TABLE SIZE: 705 POINTS
TCL: Running for 1500000 steps
ETITLE: TS BOND ANGLE DIHED IMPRP ELECT VDW BOUNDARY MISC KINETIC TOTAL TEMP POTENTIAL TOTALAVG TEMPAVG PRESSURE GPRESSURE VOLUME PRESSAVG GPRESSAVG
ENERGY: 0 2.7950 14.8970 10.1164 0.0000 -10454.5353 1391.4140 0.0000 0.0000 1759.0907 -7276.2221 304.1975 -9035.3128 -7276.2221 304.1975 262.4358 346.1013 29395.6799 262.4358 346.1013
ENERGY: 300000 0.9170 10.1668 7.4402 0.0000 -10484.1493 1408.1308 0.0000 0.0000 1809.5997 -7247.8949 312.9320 -9057.4946 -7294.2167 305.8574 83.1079 171.5709 29941.6095 375.9363 452.0169
ENERGY: 600000 1.3385 14.5896 7.4990 0.0000 -10500.5607 1390.9440 0.0000 0.0000 1731.4630 -7354.7265 299.4199 -9086.1895 -7319.6118 301.3756 -62.1215 12.9841 29725.4293 341.4664 406.8394
ENERGY: 900000 2.6664 11.1588 7.4008 0.0000 -10475.2401 1413.4105 0.0000 0.0000 1737.2205 -7303.3830 300.4155 -9040.6035 -7312.6778 301.5372 59.0761 141.0495 29848.1947 290.2859 349.6020
ENERGY: 1200000 2.4302 10.3407 8.9094 0.0000 -10553.4335 1419.5844 0.0000 0.0000 1731.6826 -7380.4861 299.4578 -9112.1687 -7313.9240 301.2537 -149.6949 -40.4188 29782.0908 159.7728 225.6524
ENERGY: 1500000 6.0736 17.6281 6.5858 0.0000 -10432.0764 1401.9670 0.0000 0.0000 1716.1283 -7283.6936 296.7681 -8999.8219 -7322.7159 301.2845 21.9403 60.2625 29957.2026 139.4623 204.0341
TCL: Running FEP window  19: Lambda1 0.9000000000000002 Lambda2 0.9500000000000003 [dLambda 0.050000000000000044]
TCL: Setting parameter firsttimestep to 0
TCL: Setting parameter alchLambda to 0.9000000000000002
Info: NONBONDED TABLE R-SQUARED SPACING: 0.0625
Info: NONBONDED TABLE SIZE: 705 POINTS
TCL: Setting parameter alchLambda2 to 0.9500000000000003
Info: NONBONDED TABLE R-SQUARED SPACING: 0.0625
Info: NONBONDED TABLE SIZE: 705 POINTS
TCL: Running for 1500000 steps
ETITLE: TS BOND ANGLE DIHED IMPRP ELECT VDW BOUNDARY MISC KINETIC TOTAL TEMP POTENTIAL TOTALAVG TEMPAVG PRESSURE GPRESSURE VOLUME PRESSAVG GPRESSAVG
ENERGY: 0 6.0736 17.6281 6.5858 0.0000 -10433.0844 1402.2598 0.0000 0.0000 1715.2591 -7285.2780 296.6178 -9000.5371 -7285.2780 296.6178 -10.0026 77.5880 29957.2026 -10.0026 77.5880
ENERGY: 300000 1.8138 10.4731 9.0115 0.0000 -10456.0846 1406.0996 0.0000 0.0000 1704.2861 -7324.4006 294.7202 -9028.6866 -7329.6341 300.2694 225.5010 298.8888 29855.5184 16.6813 89.6653
ENERGY: 600000 5.5382 11.4196 8.2890 0.0000 -10502.9184 1397.7661 0.0000 0.0000 1738.4451 -7341.4603 300.6273 -9079.9054 -7315.7336 299.8917 -109.4575 -79.3237 29753.5162 163.5107 218.3503
ENERGY: 900000 3.4296 9.3104 8.6669 0.0000 -10445.5971 1388.0118 0.0000 0.0000 1710.0720 -7326.1063 295.7207 -9036.1783 -7305.3084 300.0024 -63.9378 21.6199 29877.8973 -10.2821 53.6859
ENERGY: 1200000 3.5861 13.8684 8.1643 0.0000 -10589.9952 1491.3429 0.0000 0.0000 1763.3766 -7309.6568 304.9387 -9073.0334 -7307.6020 300.1949 870.1705 912.9117 29565.3364 64.2233 114.5643
ENERGY: 1500000 3.5978 17.8767 7.9726 0.0000 -10517.5056 1424.3084 0.0000 0.0000 1716.5865 -7347.1636 296.8473 -9063.7501 -7319.7017 299.5802 419.3310 490.0751 29650.4356 57.4346 113.4109
TCL: Running FEP window  20: Lambda1 0.9500000000000003 Lambda2 1.0    [dLambda 0.04999999999999971]
TCL: Setting parameter firsttimestep to 0
TCL: Setting parameter alchLambda to 0.9500000000000003
Info: NONBONDED TABLE R-SQUARED SPACING: 0.0625
Info: NONBONDED TABLE SIZE: 705 POINTS
TCL: Setting parameter alchLambda2 to 1.0
Info: NONBONDED TABLE R-SQUARED SPACING: 0.0625
Info: NONBONDED TABLE SIZE: 705 POINTS
TCL: Running for 1500000 steps
ETITLE: TS BOND ANGLE DIHED IMPRP ELECT VDW BOUNDARY MISC KINETIC TOTAL TEMP POTENTIAL TOTALAVG TEMPAVG PRESSURE GPRESSURE VOLUME PRESSAVG GPRESSAVG
ENERGY: 0 3.5978 17.8767 7.9726 0.0000 -10518.2887 1424.3614 0.0000 0.0000 1715.6941 -7348.7861 296.6930 -9064.4802 -7348.7861 296.6930 415.3069 502.0290 29650.4356 415.3069 502.0290
ENERGY: 300000 2.4774 15.2917 6.1889 0.0000 -10599.3094 1446.6493 0.0000 0.0000 1735.7216 -7392.9804 300.1563 -9128.7020 -7360.3033 299.7510 324.5962 363.2984 29432.6032 163.8365 226.4393
ENERGY: 600000 5.3627 17.4938 6.8756 0.0000 -10434.7385 1356.0817 0.0000 0.0000 1768.0684 -7280.8562 305.7500 -9048.9247 -7325.5679 301.5658 -398.4861 -312.6442 29791.2563 -153.5611 -77.0617
ENERGY: 900000 1.2225 12.7717 6.5133 0.0000 -10561.1709 1438.0732 0.0000 0.0000 1764.9661 -7337.6240 305.2135 -9102.5902 -7329.3590 300.6455 212.0238 253.0543 29794.3081 -186.0526 -118.7206
ENERGY: 1200000 3.8445 17.8152 7.0587 0.0000 -10387.0666 1363.8665 0.0000 0.0000 1782.8616 -7211.6200 308.3082 -8994.4816 -7312.7782 301.1972 -140.1137 -71.1745 29827.0421 -210.6730 -140.2920
ENERGY: 1500000 3.7738 16.6437 6.6884 0.0000 -10441.9432 1374.2948 0.0000 0.0000 1714.3442 -7326.1983 296.4595 -9040.5425 -7322.0055 300.1854 -405.1579 -415.3268 30235.8845 -160.5556 -101.0827
TCL: Exiting due to exit command.
