Info: SIMULATION PARAMETERS:
Info: TIMESTEP               2
Info: NUMBER OF STEPS        0
Info: STEPS PER CYCLE        10
Info: PERIODIC CELL BASIS 1  29.2729 0 0
Info: PERIODIC CELL BASIS 2  0 31.8418 0
Info: PERIODIC CELL BASIS 3  0 0 32.1545
Info: PERIODIC CELL CENTER   0 0 0
Info: WRAPPING WATERS AROUND PERIODIC BOUNDARIES ON OUTPUT.
Info: WRAPPING ALL CLUSTERS AROUND PERIODIC BOUNDARIES ON OUTPUT.
Info: FIRST LDB TIMESTEP     50
Info: LAST LDB TIMESTEP     -1
Info: HOM BACKGROUND SCALING 1
Info: PME BACKGROUND SCALING 1
Info: MIN ATOMS PER PATCH    40
Info: EMPTY PATCH LOAD       40 ATOMS
Info: VELOCITY FILE          mobley_3210206_equil.vel
Info: CENTER OF MASS MOVING INITIALLY? NO
Info: DIELECTRIC             1
Info: EXCLUDE                SCALED ONE-FOUR
Info: 1-4 ELECTROSTATICS SCALED BY 0.833333
Info: MODIFIED 1-4 VDW PARAMETERS WILL BE USED
Info: DCD FILENAME           mobley_3210206_prod.dcd
Info: DCD FREQUENCY          100000
Info: DCD FIRST STEP         100000
Info: DCD FILE WILL CONTAIN UNIT CELL DATA
Info: XST FILENAME           mobley_3210206_prod.xst
Info: XST FREQUENCY          100000
Info: NO VELOCITY DCD OUTPUT
Info: NO FORCE DCD OUTPUT
Info: OUTPUT FILENAME        mobley_3210206_prod
Info: BINARY OUTPUT FILES WILL BE USED
Info: RESTART FILENAME       mobley_3210206_prod.restart
Info: RESTART FREQUENCY      100000
Info: BINARY RESTART FILES WILL BE USED
Info: CUTOFF                 9
Info: PAIRLIST DISTANCE      11
Info: PAIRLIST SHRINK RATE   0.01
Info: PAIRLIST GROW RATE     0.01
Info: PAIRLIST TRIGGER       0.3
Info: PAIRLISTS PER CYCLE    2
Info: PAIRLISTS ENABLED
Info: MARGIN                 2
Info: HYDROGEN GROUP CUTOFF  2.5
Info: PATCH DIMENSION        15.5
Info: ENERGY OUTPUT STEPS    100000
Info: ENERGY EVALUATION STEPS    100000
Info: OUTPUT ENERGY PRECISION 4
Info: CROSSTERM ENERGY INCLUDED IN DIHEDRAL
Info: TIMING OUTPUT STEPS    1000000
Info: PRESSURE OUTPUT STEPS  100000
Info: ALCHEMICAL FEP ON
Info: FEP CURRENT LAMBDA VALUE     1
Info: FEP COMPARISON LAMBDA VALUE  0.95
Info: FEP INTRA-ALCHEMICAL NON-BONDED INTERACTIONS WILL BE RETAINED
Info: FEP INTRA-ALCHEMICAL BONDED INTERACTIONS WILL BE RETAINED
Info: FEP VDW SHIFTING COEFFICIENT 5
Info: FEP ELEC. ACTIVE FOR ANNIHILATED PARTICLES BETWEEN LAMBDA = 0 AND LAMBDA = 0.5
Info: FEP ELEC. ACTIVE FOR EXNIHILATED PARTICLES BETWEEN LAMBDA = 0.5 AND LAMBDA = 1
Info: FEP VDW ACTIVE FOR ANNIHILATED PARTICLES BETWEEN LAMBDA = 0 AND LAMBDA = 1
Info: FEP VDW ACTIVE FOR EXNIHILATED PARTICLES BETWEEN LAMBDA = 0 AND LAMBDA = 1
Info: FEP BOND ACTIVE FOR ANNIHILATED PARTICLES BETWEEN LAMBDA = 1 AND LAMBDA = 1
Info: FEP BOND ACTIVE FOR EXNIHILATED PARTICLES BETWEEN LAMBDA = 0 AND LAMBDA = 0
Info: LANGEVIN DYNAMICS ACTIVE
Info: LANGEVIN TEMPERATURE   300
Info: LANGEVIN USING BBK INTEGRATOR
Info: LANGEVIN DAMPING COEFFICIENT IS 1 INVERSE PS
Info: LANGEVIN DYNAMICS APPLIED TO HYDROGENS
Info: LANGEVIN PISTON PRESSURE CONTROL ACTIVE
Info:        TARGET PRESSURE IS 1.01325 BAR
Info:     OSCILLATION PERIOD IS 50 FS
Info:             DECAY TIME IS 25 FS
Info:     PISTON TEMPERATURE IS 300 K
Info:       PRESSURE CONTROL IS GROUP-BASED
Info:    INITIAL STRAIN RATE IS 0.000316104 0.000316104 0.000316104
Info:       CELL FLUCTUATION IS ISOTROPIC
Info: PARTICLE MESH EWALD (PME) ACTIVE
Info: PME TOLERANCE               1e-06
Info: PME EWALD COEFFICIENT       0.348832
Info: PME INTERPOLATION ORDER     4
Info: PME GRID DIMENSIONS         32 32 36
Info: PME MAXIMUM GRID SPACING    1
Info: PME CALCULATION WILL BE PERFORMED ON GPU
Info: FULL ELECTROSTATIC EVALUATION FREQUENCY      2
Info: USING VERLET I (r-RESPA) MTS SCHEME.
Info: C1 SPLITTING OF LONG RANGE ELECTROSTATICS
Info: PLACING ATOMS IN PATCHES BY HYDROGEN GROUPS
Info: RIGID BONDS TO HYDROGEN : ALL
Info:         ERROR TOLERANCE : 1e-08
Info:          MAX ITERATIONS : 100
Info: RIGID WATER USING SETTLE ALGORITHM
Info: RANDOM NUMBER SEED     1744002344
Info: USE HYDROGEN BONDS?    NO
Info: Using AMBER format force field!
Info: AMBER PARM FILE        mobley_3210206.prmtop
Info: COORDINATE PDB         mobley_3210206.pdb
Info: Exclusions will be read from PARM file!
Info: SCNB (VDW SCALING)     2
Info: USING ARITHMETIC MEAN TO COMBINE L-J SIGMA PARAMETERS
Info: BINARY COORDINATES     mobley_3210206_equil.coor
Info: SUMMARY OF PARAMETERS:
Info: 8 BONDS
Info: 10 ANGLES
Info:   10 HARMONIC
Info:   0 COSINE-BASED
Info: 8 DIHEDRAL
Info: 0 IMPROPER
Info: 0 CROSSTERM
Info: 0 VDW
Info: 36 VDW_PAIRS
Info: 0 NBTHOLE_PAIRS
Info: To read alchdata from file: mobley_3210206.pdb
Info: To read alchflag data from column: 5
Info: STRUCTURE SUMMARY:
Info: 2906 ATOMS
Info: 2905 BONDS
Info: 26 ANGLES
Info: 35 DIHEDRALS
Info: 0 IMPROPERS
Info: 0 CROSSTERMS
Info: 2959 EXCLUSIONS
Info: 2895 RIGID BONDS
Info: ALCH: 0 ATOMS TO DISAPPEAR IN FINAL STATE
Info: ALCH: 17 ATOMS TO APPEAR IN FINAL STATE
Info: 5823 DEGREES OF FREEDOM
Info: 974 HYDROGEN GROUPS
Info: 4 ATOMS IN LARGEST HYDROGEN GROUP
Info: 974 MIGRATION GROUPS
Info: 4 ATOMS IN LARGEST MIGRATION GROUP
Info: TOTAL MASS = 17515.5 amu
Info: TOTAL CHARGE = 5.21541e-08 e
Info: MASS DENSITY = 0.970456 g/cm^3
Info: ATOM DENSITY = 0.0969593 atoms/A^3
Info: ADDED 0 IMPLICIT EXCLUSIONS
Info: NONBONDED TABLE R-SQUARED SPACING: 0.0625
Info: NONBONDED TABLE SIZE: 705 POINTS
Info: REMOVING COM VELOCITY 0.0672553 0.0402421 -0.0364985
Info: Use 3D box decompostion in PME FFT.
Info: Updated CUDA force table with 4096 elements.
Info: Updated CUDA LJ table with 8 x 8 elements.
Info: Found 18 unique exclusion lists needing 44 bytes
TCL: Running for 1500000 steps
ETITLE: TS BOND ANGLE DIHED IMPRP ELECT VDW BOUNDARY MISC KINETIC TOTAL TEMP POTENTIAL TOTALAVG TEMPAVG PRESSURE GPRESSURE VOLUME PRESSAVG GPRESSAVG
ENERGY: 0 7.7395 11.8506 4.4953 0.0000 -10527.4499 1358.6100 0.0000 0.0000 1777.1433 -7367.6113 307.1610 -9144.7545 -7367.6113 307.1610 -510.4225 -410.2675 29971.3400 -510.4225 -410.2675
ENERGY: 300000 2.3652 4.4963 5.6256 0.0000 -10560.2273 1418.9397 0.0000 0.0000 1756.8016 -7371.9988 303.6451 -9128.8004 -7363.2676 307.1784 337.4648 372.3187 29551.8105 -158.5919 -69.0371
ENERGY: 600000 3.3401 7.1992 3.8547 0.0000 -10528.2985 1417.3067 0.0000 0.0000 1764.3590 -7332.2388 304.9513 -9096.5978 -7358.1267 305.4888 243.9965 311.3640 29597.2783 -137.3074 -64.7136
ENERGY: 900000 3.3186 5.1119 3.1434 0.0000 -10564.0350 1452.2243 0.0000 0.0000 1753.1227 -7347.1140 303.0093 -9100.2368 -7346.3134 304.6961 303.3487 328.9136 30195.1864 -156.3525 -91.4967
ENERGY: 1200000 1.7076 11.4850 4.4970 0.0000 -10622.5917 1396.9713 0.0000 0.0000 1744.2926 -7463.6382 301.4831 -9207.9308 -7361.9322 303.1805 -300.8307 -267.3739 29578.5023 -106.7009 -50.5809
ENERGY: 1500000 3.2158 12.1672 3.3662 0.0000 -10469.8531 1342.6735 0.0000 0.0000 1764.6171 -7343.8133 304.9960 -9108.4304 -7357.0778 302.9074 -557.9288 -527.9027 30034.5660 -59.4368 -3.3728
TCL: Running FEP window   2: Lambda1 0.95   Lambda2 0.8999999999999999 [dLambda -0.050000000000000044]
TCL: Setting parameter firsttimestep to 0
TCL: Setting parameter alchLambda to 0.95
Info: NONBONDED TABLE R-SQUARED SPACING: 0.0625
Info: NONBONDED TABLE SIZE: 705 POINTS
TCL: Setting parameter alchLambda2 to 0.8999999999999999
Info: NONBONDED TABLE R-SQUARED SPACING: 0.0625
Info: NONBONDED TABLE SIZE: 705 POINTS
TCL: Running for 1500000 steps
ETITLE: TS BOND ANGLE DIHED IMPRP ELECT VDW BOUNDARY MISC KINETIC TOTAL TEMP POTENTIAL TOTALAVG TEMPAVG PRESSURE GPRESSURE VOLUME PRESSAVG GPRESSAVG
ENERGY: 0 3.2158 12.1672 3.3662 0.0000 -10469.1169 1342.0711 0.0000 0.0000 1763.7570 -7344.5395 304.8473 -9108.2965 -7344.5395 304.8473 -635.6297 -555.4505 30034.5660 -635.6297 -555.4505
ENERGY: 300000 3.2875 11.7360 6.0566 0.0000 -10623.6141 1437.5854 0.0000 0.0000 1820.1564 -7344.7922 314.5954 -9164.9486 -7362.6319 306.0310 56.1558 96.5623 29829.7364 -138.0289 -64.4132
ENERGY: 600000 2.3551 4.7585 3.3250 0.0000 -10680.5518 1486.2680 0.0000 0.0000 1749.4985 -7434.3467 302.3829 -9183.8451 -7376.9729 304.0372 435.0593 517.5269 29584.4477 76.5679 153.4042
ENERGY: 900000 7.5387 8.0690 4.7788 0.0000 -10297.1878 1300.9318 0.0000 0.0000 1741.9294 -7233.9400 301.0746 -8975.8695 -7362.7473 302.7537 -869.4689 -817.8450 30444.4829 -34.4690 40.0551
ENERGY: 1200000 2.1351 4.3778 5.4967 0.0000 -10575.3335 1434.3944 0.0000 0.0000 1778.9650 -7349.9643 307.4758 -9128.9294 -7357.4297 303.2073 557.4140 653.0932 29472.1286 96.2675 168.4484
ENERGY: 1500000 2.9391 11.1995 5.0244 0.0000 -10392.4786 1321.8196 0.0000 0.0000 1757.6941 -7293.8019 303.7994 -9051.4960 -7360.5614 302.2880 -469.5687 -460.3434 29801.6829 69.7724 136.9770
TCL: Running FEP window   3: Lambda1 0.8999999999999999 Lambda2 0.8499999999999999 [dLambda -0.050000000000000044]
TCL: Setting parameter firsttimestep to 0
TCL: Setting parameter alchLambda to 0.8999999999999999
Info: NONBONDED TABLE R-SQUARED SPACING: 0.0625
Info: NONBONDED TABLE SIZE: 705 POINTS
TCL: Setting parameter alchLambda2 to 0.8499999999999999
Info: NONBONDED TABLE R-SQUARED SPACING: 0.0625
Info: NONBONDED TABLE SIZE: 705 POINTS
TCL: Running for 1500000 steps
ETITLE: TS BOND ANGLE DIHED IMPRP ELECT VDW BOUNDARY MISC KINETIC TOTAL TEMP POTENTIAL TOTALAVG TEMPAVG PRESSURE GPRESSURE VOLUME PRESSAVG GPRESSAVG
ENERGY: 0 2.9391 11.1995 5.0244 0.0000 -10391.0939 1321.7759 0.0000 0.0000 1756.8246 -7293.3303 303.6491 -9050.1549 -7293.3303 303.6491 -563.5491 -475.6788 29801.6829 -563.5491 -475.6788
ENERGY: 300000 3.8109 8.9143 4.0217 0.0000 -10609.2999 1431.1685 0.0000 0.0000 1741.5645 -7419.8199 301.0116 -9161.3844 -7316.6822 302.8430 -141.0339 -94.5161 29772.5916 -257.2219 -195.8387
ENERGY: 600000 2.9793 5.5423 4.2139 0.0000 -10483.7895 1324.4563 0.0000 0.0000 1746.7914 -7399.8063 301.9150 -9146.5977 -7337.7951 300.9887 -602.4032 -582.2636 29882.4663 -289.0193 -225.5878
ENERGY: 900000 6.5818 7.7144 4.5068 0.0000 -10619.3436 1463.1582 0.0000 0.0000 1707.4112 -7429.9712 295.1085 -9137.3824 -7365.9676 298.9347 351.5098 420.4785 29717.1579 -196.7679 -137.9578
ENERGY: 1200000 3.8876 4.9518 3.9510 0.0000 -10631.1655 1457.6004 0.0000 0.0000 1675.8708 -7484.9039 289.6571 -9160.7746 -7374.2870 298.6013 371.3989 452.9894 29614.7834 -56.1629 0.2427
ENERGY: 1500000 4.0771 11.1727 4.9761 0.0000 -10491.1716 1349.6249 0.0000 0.0000 1704.3984 -7416.9225 294.5878 -9121.3209 -7380.0586 298.3432 -537.9692 -510.9176 29785.3263 1.8357 63.0585
TCL: Running FEP window   4: Lambda1 0.8499999999999999 Lambda2 0.7999999999999998 [dLambda -0.050000000000000044]
TCL: Setting parameter firsttimestep to 0
TCL: Setting parameter alchLambda to 0.8499999999999999
Info: NONBONDED TABLE R-SQUARED SPACING: 0.0625
Info: NONBONDED TABLE SIZE: 705 POINTS
TCL: Setting parameter alchLambda2 to 0.7999999999999998
Info: NONBONDED TABLE R-SQUARED SPACING: 0.0625
Info: NONBONDED TABLE SIZE: 705 POINTS
TCL: Running for 1500000 steps
ETITLE: TS BOND ANGLE DIHED IMPRP ELECT VDW BOUNDARY MISC KINETIC TOTAL TEMP POTENTIAL TOTALAVG TEMPAVG PRESSURE GPRESSURE VOLUME PRESSAVG GPRESSAVG
ENERGY: 0 4.0771 11.1726 4.9761 0.0000 -10490.1571 1350.4273 0.0000 0.0000 1703.5323 -7415.9718 294.4381 -9119.5041 -7415.9718 294.4381 -582.8810 -514.3094 29785.3263 -582.8810 -514.3094
ENERGY: 300000 2.6947 6.9642 3.4770 0.0000 -10406.6305 1345.6200 0.0000 0.0000 1740.5608 -7307.3138 300.8381 -9047.8746 -7383.2833 296.4428 -612.2034 -546.8567 30029.6366 -501.7248 -431.8729
ENERGY: 600000 4.2215 6.5015 3.3194 0.0000 -10403.7952 1312.9879 0.0000 0.0000 1727.8897 -7348.8752 298.6480 -9076.7649 -7378.2992 296.8528 -651.1961 -615.4665 30070.7493 -297.6208 -246.8565
ENERGY: 900000 4.3524 9.0140 7.0271 0.0000 -10647.1490 1443.6154 0.0000 0.0000 1707.9209 -7475.2192 295.1966 -9183.1401 -7378.6147 297.9213 81.6331 126.5901 29582.1351 -101.4491 -48.9739
ENERGY: 1200000 1.9412 9.4364 3.6978 0.0000 -10433.2043 1333.7201 0.0000 0.0000 1695.5275 -7388.8814 293.0545 -9084.4089 -7382.8357 298.4128 -851.7051 -768.6829 30442.2525 -87.9338 -34.2486
ENERGY: 1500000 5.2456 8.7630 4.1784 0.0000 -10536.5586 1388.2122 0.0000 0.0000 1768.4427 -7361.7168 305.6572 -9130.1595 -7382.5950 298.4397 -471.0521 -380.2014 30083.6290 -129.5889 -74.1106
TCL: Running FEP window   5: Lambda1 0.7999999999999998 Lambda2 0.7499999999999998 [dLambda -0.050000000000000044]
TCL: Setting parameter firsttimestep to 0
TCL: Setting parameter alchLambda to 0.7999999999999998
Info: NONBONDED TABLE R-SQUARED SPACING: 0.0625
Info: NONBONDED TABLE SIZE: 705 POINTS
TCL: Setting parameter alchLambda2 to 0.7499999999999998
Info: NONBONDED TABLE R-SQUARED SPACING: 0.0625
Info: NONBONDED TABLE SIZE: 705 POINTS
TCL: Running for 1500000 steps
ETITLE: TS BOND ANGLE DIHED IMPRP ELECT VDW BOUNDARY MISC KINETIC TOTAL TEMP POTENTIAL TOTALAVG TEMPAVG PRESSURE GPRESSURE VOLUME PRESSAVG GPRESSAVG
ENERGY: 0 5.2456 8.7630 4.1784 0.0000 -10535.4174 1388.6347 0.0000 0.0000 1767.6037 -7360.9920 305.5122 -9128.5958 -7360.9920 305.5122 -459.7669 -385.1578 30083.6290 -459.7669 -385.1578
ENERGY: 300000 0.8091 5.3617 4.8153 0.0000 -10605.8533 1456.9642 0.0000 0.0000 1700.7268 -7437.1762 293.9532 -9137.9030 -7367.7919 299.8632 381.2596 430.5423 29691.9314 -42.7666 38.9643
ENERGY: 600000 4.6448 9.5829 3.0079 0.0000 -10627.5139 1463.0459 0.0000 0.0000 1776.1668 -7371.0657 306.9922 -9147.2325 -7381.6916 299.6425 177.1677 236.6465 29925.0370 -124.6448 -52.6238
ENERGY: 900000 2.4897 6.4174 4.6096 0.0000 -10459.9072 1415.8063 0.0000 0.0000 1728.3429 -7302.2413 298.7263 -9030.5842 -7377.0523 298.6461 68.6787 71.1894 30424.4938 -60.2981 -3.2796
ENERGY: 1200000 4.2005 12.4433 4.5830 0.0000 -10542.2828 1406.0333 0.0000 0.0000 1768.9213 -7346.1014 305.7399 -9115.0227 -7370.6842 299.0330 -30.3186 66.7566 29908.2180 -140.1914 -77.4676
ENERGY: 1500000 3.4085 10.3746 4.4350 0.0000 -10599.2191 1415.5825 0.0000 0.0000 1778.8184 -7386.6001 307.4505 -9165.4185 -7372.2341 299.7722 -28.6518 12.9791 29936.2601 -151.1349 -91.4119
TCL: Running FEP window   6: Lambda1 0.7499999999999998 Lambda2 0.6999999999999997 [dLambda -0.050000000000000044]
TCL: Setting parameter firsttimestep to 0
TCL: Setting parameter alchLambda to 0.7499999999999998
Info: NONBONDED TABLE R-SQUARED SPACING: 0.0625
Info: NONBONDED TABLE SIZE: 705 POINTS
TCL: Setting parameter alchLambda2 to 0.6999999999999997
Info: NONBONDED TABLE R-SQUARED SPACING: 0.0625
Info: NONBONDED TABLE SIZE: 705 POINTS
TCL: Running for 1500000 steps
ETITLE: TS BOND ANGLE DIHED IMPRP ELECT VDW BOUNDARY MISC KINETIC TOTAL TEMP POTENTIAL TOTALAVG TEMPAVG PRESSURE GPRESSURE VOLUME PRESSAVG GPRESSAVG
ENERGY: 0 3.4085 10.3746 4.4350 0.0000 -10598.1906 1415.8428 0.0000 0.0000 1778.0017 -7386.1280 307.3093 -9164.1297 -7386.1280 307.3093 -74.2557 1.9657 29936.2601 -74.2557 1.9657
ENERGY: 300000 3.9798 7.2446 6.0611 0.0000 -10617.2190 1461.1200 0.0000 0.0000 1781.7778 -7357.0358 307.9620 -9138.8135 -7391.3910 301.8809 335.2987 397.7827 29515.8405 -180.6621 -96.7821
ENERGY: 600000 4.9861 8.2890 4.1575 0.0000 -10569.1139 1420.6444 0.0000 0.0000 1731.0043 -7400.0327 299.1863 -9131.0370 -7372.8610 301.3653 478.9362 523.8592 29291.1191 102.4414 174.3025
ENERGY: 900000 4.4711 7.5076 6.3394 0.0000 -10562.4649 1411.9857 0.0000 0.0000 1789.7475 -7342.4137 309.3395 -9132.1611 -7378.7124 300.6676 -323.7899 -327.7438 30344.1149 4.4535 65.8587
ENERGY: 1200000 5.1497 10.9280 8.8881 0.0000 -10622.8805 1473.8317 0.0000 0.0000 1728.7390 -7395.3440 298.7948 -9124.0830 -7377.8261 300.6709 434.7266 531.1604 29606.1641 43.9539 109.4688
ENERGY: 1500000 5.4466 10.1350 6.8009 0.0000 -10720.0290 1557.0081 0.0000 0.0000 1772.8376 -7367.8008 306.4168 -9140.6384 -7369.4427 300.1310 1516.1766 1449.3400 29561.5719 121.4132 176.8501
TCL: Running FEP window   7: Lambda1 0.6999999999999997 Lambda2 0.6499999999999997 [dLambda -0.050000000000000044]
TCL: Setting parameter firsttimestep to 0
TCL: Setting parameter alchLambda to 0.6999999999999997
Info: NONBONDED TABLE R-SQUARED SPACING: 0.0625
Info: NONBONDED TABLE SIZE: 705 POINTS
TCL: Setting parameter alchLambda2 to 0.6499999999999997
Info: NONBONDED TABLE R-SQUARED SPACING: 0.0625
Info: NONBONDED TABLE SIZE: 705 POINTS
TCL: Running for 1500000 steps
ETITLE: TS BOND ANGLE DIHED IMPRP ELECT VDW BOUNDARY MISC KINETIC TOTAL TEMP POTENTIAL TOTALAVG TEMPAVG PRESSURE GPRESSURE VOLUME PRESSAVG GPRESSAVG
ENERGY: 0 5.4466 10.1350 6.8009 0.0000 -10718.9102 1557.0618 0.0000 0.0000 1771.9614 -7367.5045 306.2653 -9139.4659 -7367.5045 306.2653 1352.0909 1440.5871 29561.5719 1352.0909 1440.5871
ENERGY: 300000 4.1096 7.3466 5.5913 0.0000 -10554.0150 1465.8123 0.0000 0.0000 1736.0086 -7335.1466 300.0513 -9071.1552 -7337.4775 298.5431 489.3470 593.4474 29894.7701 232.7759 319.3030
ENERGY: 600000 3.0456 5.7459 7.2389 0.0000 -10503.6800 1408.9995 0.0000 0.0000 1792.9361 -7285.7140 309.8906 -9078.6501 -7339.3450 301.1784 131.9474 117.8924 30213.3114 1.0054 61.5628
ENERGY: 900000 2.2462 11.1866 7.3652 0.0000 -10551.8257 1378.1866 0.0000 0.0000 1686.7782 -7466.0628 291.5423 -9152.8410 -7352.6431 300.1229 -410.3398 -344.5412 29843.7251 -122.3857 -63.1174
ENERGY: 1200000 1.9316 9.6833 4.1637 0.0000 -10522.5400 1377.3533 0.0000 0.0000 1733.6946 -7395.7135 299.6513 -9129.4081 -7354.6579 300.3496 -530.2161 -497.2571 30393.9534 -55.0293 7.1914
ENERGY: 1500000 3.7948 7.0552 5.9874 0.0000 -10664.8661 1488.3010 0.0000 0.0000 1758.0547 -7401.6731 303.8617 -9159.7278 -7357.5875 300.7658 412.8504 460.3396 30065.3015 47.6834 111.9970
TCL: Running FEP window   8: Lambda1 0.6499999999999997 Lambda2 0.5999999999999996 [dLambda -0.050000000000000044]
TCL: Setting parameter firsttimestep to 0
TCL: Setting parameter alchLambda to 0.6499999999999997
Info: NONBONDED TABLE R-SQUARED SPACING: 0.0625
Info: NONBONDED TABLE SIZE: 705 POINTS
TCL: Setting parameter alchLambda2 to 0.5999999999999996
Info: NONBONDED TABLE R-SQUARED SPACING: 0.0625
Info: NONBONDED TABLE SIZE: 705 POINTS
TCL: Running for 1500000 steps
ETITLE: TS BOND ANGLE DIHED IMPRP ELECT VDW BOUNDARY MISC KINETIC TOTAL TEMP POTENTIAL TOTALAVG TEMPAVG PRESSURE GPRESSURE VOLUME PRESSAVG GPRESSAVG
ENERGY: 0 3.7948 7.0552 5.9874 0.0000 -10664.5207 1487.7883 0.0000 0.0000 1757.1397 -7402.7553 303.7036 -9159.8950 -7402.7553 303.7036 361.5162 440.7690 30065.3015 361.5162 440.7690
ENERGY: 300000 2.4466 8.4400 7.8229 0.0000 -10696.2177 1496.3575 0.0000 0.0000 1692.4581 -7488.6926 292.5240 -9181.1506 -7431.5823 299.6160 607.7764 680.3825 29642.5116 209.1526 242.0762
ENERGY: 600000 3.6689 12.4581 3.2882 0.0000 -10586.9617 1416.6721 0.0000 0.0000 1733.5447 -7417.3297 299.6254 -9150.8744 -7425.0169 299.1592 -73.8718 0.0868 29608.0791 -4.2031 47.3818
ENERGY: 900000 6.0207 7.6476 5.9867 0.0000 -10544.1410 1380.8164 0.0000 0.0000 1801.7727 -7341.8969 311.4179 -9143.6697 -7418.2640 300.9046 -155.1481 -52.5704 29460.5467 -34.6004 23.4268
ENERGY: 1200000 2.5995 6.1591 5.4964 0.0000 -10717.5610 1540.1550 0.0000 0.0000 1734.8588 -7428.2922 299.8525 -9163.1510 -7408.6331 300.2488 870.0063 857.4807 29895.9179 134.3565 183.2632
ENERGY: 1500000 2.3754 6.8280 8.8050 0.0000 -10564.6776 1437.0635 0.0000 0.0000 1749.5186 -7360.0871 302.3863 -9109.6057 -7394.8409 301.1124 184.3097 225.0259 30071.8048 108.9494 160.8239
TCL: Running FEP window   9: Lambda1 0.5999999999999996 Lambda2 0.5499999999999996 [dLambda -0.050000000000000044]
TCL: Setting parameter firsttimestep to 0
TCL: Setting parameter alchLambda to 0.5999999999999996
Info: NONBONDED TABLE R-SQUARED SPACING: 0.0625
Info: NONBONDED TABLE SIZE: 705 POINTS
TCL: Setting parameter alchLambda2 to 0.5499999999999996
Info: NONBONDED TABLE R-SQUARED SPACING: 0.0625
Info: NONBONDED TABLE SIZE: 705 POINTS
TCL: Running for 1500000 steps
ETITLE: TS BOND ANGLE DIHED IMPRP ELECT VDW BOUNDARY MISC KINETIC TOTAL TEMP POTENTIAL TOTALAVG TEMPAVG PRESSURE GPRESSURE VOLUME PRESSAVG GPRESSAVG
ENERGY: 0 2.3754 6.8280 8.8050 0.0000 -10563.9510 1436.6186 0.0000 0.0000 1748.6627 -7360.6613 302.2384 -9109.3240 -7360.6613 302.2384 129.6793 210.2149 30071.8048 129.6793 210.2149
ENERGY: 300000 2.2985 7.6144 4.4532 0.0000 -10527.6066 1417.1866 0.0000 0.0000 1706.8762 -7389.1778 295.0160 -9096.0540 -7366.1103 297.7383 182.0424 190.2319 29624.5408 -39.1723 0.1309
ENERGY: 600000 1.6903 9.6349 6.6460 0.0000 -10444.7310 1356.3233 0.0000 0.0000 1744.4450 -7325.9915 301.5094 -9070.4364 -7351.1954 298.7698 -140.5933 -49.6555 29621.0106 -7.6315 37.6154
ENERGY: 900000 4.8454 10.3936 5.2266 0.0000 -10691.4233 1495.1364 0.0000 0.0000 1751.9418 -7423.8794 302.8052 -9175.8212 -7370.3011 297.1795 384.6433 467.8258 29775.8727 -27.7498 26.2293
ENERGY: 1200000 2.4291 4.6866 5.4940 0.0000 -10640.8426 1495.0476 0.0000 0.0000 1712.4380 -7420.7473 295.9773 -9133.1853 -7371.5390 297.4348 705.6405 722.9702 30039.9171 52.2494 98.5123
ENERGY: 1500000 1.1501 10.5209 7.3119 0.0000 -10628.0295 1441.4812 0.0000 0.0000 1753.0388 -7414.5266 302.9948 -9167.5654 -7367.5733 298.2397 94.2294 194.9184 29657.5976 61.7195 112.5345
TCL: Running FEP window  10: Lambda1 0.5499999999999996 Lambda2 0.4999999999999996 [dLambda -0.04999999999999999]
TCL: Setting parameter firsttimestep to 0
TCL: Setting parameter alchLambda to 0.5499999999999996
Info: NONBONDED TABLE R-SQUARED SPACING: 0.0625
Info: NONBONDED TABLE SIZE: 705 POINTS
TCL: Setting parameter alchLambda2 to 0.4999999999999996
Info: NONBONDED TABLE R-SQUARED SPACING: 0.0625
Info: NONBONDED TABLE SIZE: 705 POINTS
TCL: Running for 1500000 steps
ETITLE: TS BOND ANGLE DIHED IMPRP ELECT VDW BOUNDARY MISC KINETIC TOTAL TEMP POTENTIAL TOTALAVG TEMPAVG PRESSURE GPRESSURE VOLUME PRESSAVG GPRESSAVG
ENERGY: 0 1.1501 10.5209 7.3119 0.0000 -10627.6433 1441.6767 0.0000 0.0000 1752.1891 -7414.7946 302.8479 -9166.9837 -7414.7946 302.8479 94.3326 185.9282 29657.5976 94.3326 185.9282
ENERGY: 300000 1.9343 11.3933 5.6561 0.0000 -10534.5317 1457.3479 0.0000 0.0000 1731.3617 -7326.8383 299.2481 -9058.2000 -7362.0637 298.8503 439.6112 523.8115 29868.3575 -107.4586 -37.1949
ENERGY: 600000 4.7772 10.8066 6.5240 0.0000 -10459.3172 1339.2312 0.0000 0.0000 1684.6586 -7413.3197 291.1759 -9097.9783 -7363.5876 300.5213 -596.2120 -564.0939 29711.7953 97.8071 151.3799
ENERGY: 900000 4.1696 12.6774 3.6816 0.0000 -10566.3493 1404.7316 0.0000 0.0000 1710.7998 -7430.2893 295.6942 -9141.0891 -7354.0155 300.6138 -190.9339 -82.3652 29914.5407 -28.0821 34.9056
ENERGY: 1200000 2.5373 8.2719 7.2219 0.0000 -10381.1444 1411.1042 0.0000 0.0000 1762.6886 -7189.3205 304.6626 -8952.0091 -7335.6955 301.1294 280.5344 321.4759 30111.0897 -33.6189 28.1443
ENERGY: 1500000 2.8430 7.9811 6.5047 0.0000 -10627.6676 1480.7823 0.0000 0.0000 1755.3517 -7374.2048 303.3945 -9129.5565 -7329.0846 300.9870 532.5916 564.9266 29727.6261 42.5339 98.4476
TCL: Running FEP window  11: Lambda1 0.4999999999999996 Lambda2 0.4499999999999996 [dLambda -0.04999999999999999]
TCL: Setting parameter firsttimestep to 0
TCL: Setting parameter alchLambda to 0.4999999999999996
Info: NONBONDED TABLE R-SQUARED SPACING: 0.0625
Info: NONBONDED TABLE SIZE: 705 POINTS
TCL: Setting parameter alchLambda2 to 0.4499999999999996
Info: NONBONDED TABLE R-SQUARED SPACING: 0.0625
Info: NONBONDED TABLE SIZE: 705 POINTS
TCL: Running for 1500000 steps
ETITLE: TS BOND ANGLE DIHED IMPRP ELECT VDW BOUNDARY MISC KINETIC TOTAL TEMP POTENTIAL TOTALAVG TEMPAVG PRESSURE GPRESSURE VOLUME PRESSAVG GPRESSAVG
ENERGY: 0 2.8430 7.9811 6.5047 0.0000 -10627.8758 1480.3129 0.0000 0.0000 1754.4857 -7375.7484 303.2448 -9130.2341 -7375.7484 303.2448 472.9752 550.6177 29727.6261 472.9752 550.6177
ENERGY: 300000 4.0958 4.7220 4.2533 0.0000 -10582.0920 1421.2314 0.0000 0.0000 1738.6164 -7409.1731 300.5020 -9147.7895 -7366.2570 303.0503 -272.4220 -248.6959 30178.7677 -273.3632 -236.7034
ENERGY: 600000 3.0445 7.2711 3.5359 0.0000 -10383.0431 1353.9293 0.0000 0.0000 1722.5214 -7292.7409 297.7201 -9015.2623 -7351.7799 301.9517 -294.3452 -222.7372 29971.4084 -76.8648 -28.2392
ENERGY: 900000 4.2137 6.7672 4.8985 0.0000 -10503.9040 1378.9367 0.0000 0.0000 1781.1027 -7327.9853 307.8453 -9109.0880 -7339.1363 303.1842 -456.7686 -387.7765 29892.0160 -27.6626 20.3347
ENERGY: 1200000 3.6340 6.3648 4.1455 0.0000 -10540.0756 1349.7642 0.0000 0.0000 1772.4230 -7403.7441 306.3451 -9176.1671 -7350.3616 302.8454 -535.2071 -497.5594 29550.7118 -84.6396 -33.2299
ENERGY: 1500000 4.1537 7.1901 6.4486 0.0000 -10578.8245 1447.6287 0.0000 0.0000 1707.7232 -7405.6802 295.1624 -9113.4034 -7347.2930 301.9485 288.9392 305.4282 29735.9528 -45.5091 6.3011
TCL: Running FEP window  12: Lambda1 0.4499999999999996 Lambda2 0.39999999999999963 [dLambda -0.04999999999999999]
TCL: Setting parameter firsttimestep to 0
TCL: Setting parameter alchLambda to 0.4499999999999996
Info: NONBONDED TABLE R-SQUARED SPACING: 0.0625
Info: NONBONDED TABLE SIZE: 705 POINTS
TCL: Setting parameter alchLambda2 to 0.39999999999999963
Info: NONBONDED TABLE R-SQUARED SPACING: 0.0625
Info: NONBONDED TABLE SIZE: 705 POINTS
TCL: Running for 1500000 steps
ETITLE: TS BOND ANGLE DIHED IMPRP ELECT VDW BOUNDARY MISC KINETIC TOTAL TEMP POTENTIAL TOTALAVG TEMPAVG PRESSURE GPRESSURE VOLUME PRESSAVG GPRESSAVG
ENERGY: 0 4.1537 7.1901 6.4486 0.0000 -10578.8242 1447.4415 0.0000 0.0000 1706.8292 -7406.7612 295.0079 -9113.5904 -7406.7612 295.0079 210.4619 296.0725 29735.9528 210.4619 296.0725
ENERGY: 300000 6.1706 7.6593 3.5494 0.0000 -10588.9354 1430.2941 0.0000 0.0000 1711.5266 -7429.7354 295.8198 -9141.2620 -7394.0540 296.9438 -209.6753 -96.0059 29802.6086 -60.2393 31.1215
ENERGY: 600000 6.2298 8.2503 6.2001 0.0000 -10507.3160 1387.8941 0.0000 0.0000 1724.8422 -7373.8995 298.1213 -9098.7417 -7376.9013 298.3083 -241.3964 -125.6102 29586.3277 -4.6971 92.9845
ENERGY: 900000 3.0587 8.0755 3.8611 0.0000 -10503.1597 1379.9896 0.0000 0.0000 1730.5325 -7377.6423 299.1048 -9108.1747 -7379.6628 297.6498 -84.3020 -91.5520 29586.1068 95.4442 179.7114
ENERGY: 1200000 5.8384 8.0905 3.9287 0.0000 -10417.4218 1367.6524 0.0000 0.0000 1761.0127 -7270.8992 304.3730 -9031.9118 -7373.3266 297.9500 -509.9266 -417.1668 30113.3356 29.6126 111.1796
ENERGY: 1500000 4.3600 6.1582 3.4771 0.0000 -10506.5558 1424.7300 0.0000 0.0000 1753.4236 -7314.4070 303.0613 -9067.8306 -7367.5510 298.8029 134.4701 237.3183 29985.0905 60.6657 145.3668
TCL: Running FEP window  13: Lambda1 0.39999999999999963 Lambda2 0.34999999999999964 [dLambda -0.04999999999999999]
TCL: Setting parameter firsttimestep to 0
TCL: Setting parameter alchLambda to 0.39999999999999963
Info: NONBONDED TABLE R-SQUARED SPACING: 0.0625
Info: NONBONDED TABLE SIZE: 705 POINTS
TCL: Setting parameter alchLambda2 to 0.34999999999999964
Info: NONBONDED TABLE R-SQUARED SPACING: 0.0625
Info: NONBONDED TABLE SIZE: 705 POINTS
TCL: Running for 1500000 steps
ETITLE: TS BOND ANGLE DIHED IMPRP ELECT VDW BOUNDARY MISC KINETIC TOTAL TEMP POTENTIAL TOTALAVG TEMPAVG PRESSURE GPRESSURE VOLUME PRESSAVG GPRESSAVG
ENERGY: 0 4.3600 6.1582 3.4771 0.0000 -10506.5575 1425.4198 0.0000 0.0000 1752.5525 -7314.5899 302.9107 -9067.1424 -7314.5899 302.9107 151.7412 237.0311 29985.0905 151.7412 237.0311
ENERGY: 300000 6.9600 6.8552 4.6094 0.0000 -10487.9005 1420.5274 0.0000 0.0000 1783.8818 -7265.0667 308.3257 -9048.9484 -7324.0991 304.1994 85.8793 152.0025 29756.1495 373.9112 450.1339
ENERGY: 600000 3.5514 10.0941 7.3846 0.0000 -10610.1085 1452.3124 0.0000 0.0000 1702.0427 -7434.7233 294.1806 -9136.7660 -7363.1286 300.2486 208.1898 263.3470 29753.4633 362.1854 437.5921
ENERGY: 900000 3.7524 6.8198 4.6371 0.0000 -10677.5851 1547.7844 0.0000 0.0000 1709.4595 -7405.1320 295.4625 -9114.5915 -7361.9608 300.4891 1026.7506 1071.8505 29632.8093 407.9498 474.2298
ENERGY: 1200000 2.4983 5.9057 6.0992 0.0000 -10404.6114 1295.9455 0.0000 0.0000 1646.7896 -7447.3731 284.6307 -9094.1628 -7374.8854 299.3352 -843.5313 -775.1743 29419.4837 164.9220 235.8387
ENERGY: 1500000 5.1903 10.7535 6.1158 0.0000 -10536.0189 1402.2854 0.0000 0.0000 1701.0505 -7410.6236 294.0091 -9111.6741 -7380.8737 298.7128 -315.9678 -190.6798 29899.7793 168.8402 236.5458
TCL: Running FEP window  14: Lambda1 0.34999999999999964 Lambda2 0.29999999999999966 [dLambda -0.04999999999999999]
TCL: Setting parameter firsttimestep to 0
TCL: Setting parameter alchLambda to 0.34999999999999964
Info: NONBONDED TABLE R-SQUARED SPACING: 0.0625
Info: NONBONDED TABLE SIZE: 705 POINTS
TCL: Setting parameter alchLambda2 to 0.29999999999999966
Info: NONBONDED TABLE R-SQUARED SPACING: 0.0625
Info: NONBONDED TABLE SIZE: 705 POINTS
TCL: Running for 1500000 steps
ETITLE: TS BOND ANGLE DIHED IMPRP ELECT VDW BOUNDARY MISC KINETIC TOTAL TEMP POTENTIAL TOTALAVG TEMPAVG PRESSURE GPRESSURE VOLUME PRESSAVG GPRESSAVG
ENERGY: 0 5.1903 10.7535 6.1158 0.0000 -10536.0177 1402.3282 0.0000 0.0000 1700.2180 -7411.4121 293.8652 -9111.6301 -7411.4121 293.8652 -278.1305 -194.7384 29899.7793 -278.1305 -194.7384
ENERGY: 300000 2.5411 10.1291 8.7057 0.0000 -10541.5460 1442.7034 0.0000 0.0000 1739.7246 -7337.7421 300.6935 -9077.4667 -7363.2078 298.8275 538.1423 590.2178 29475.7460 69.3685 131.7981
ENERGY: 600000 3.7904 9.2378 3.7659 0.0000 -10550.5223 1456.2864 0.0000 0.0000 1747.6429 -7329.7989 302.0621 -9077.4418 -7367.1974 299.8256 42.2509 111.2429 29854.8188 50.6375 111.1046
ENERGY: 900000 5.1963 7.3745 8.4703 0.0000 -10643.3593 1414.5777 0.0000 0.0000 1666.3343 -7541.4062 288.0088 -9207.7405 -7372.8756 299.0316 -322.7243 -261.5880 29608.9481 -108.9828 -41.6710
ENERGY: 1200000 4.4994 7.6948 3.1478 0.0000 -10568.3679 1405.8185 0.0000 0.0000 1772.3834 -7374.8240 306.3383 -9147.2074 -7361.4939 300.9958 -0.5360 95.7419 29586.7856 -57.7978 9.9771
ENERGY: 1500000 4.5059 7.5080 4.5966 0.0000 -10565.4152 1485.0952 0.0000 0.0000 1737.5025 -7326.2070 300.3095 -9063.7095 -7354.1004 301.0177 684.2722 777.7433 29582.4506 -76.9674 -9.6244
TCL: Running FEP window  15: Lambda1 0.29999999999999966 Lambda2 0.24999999999999967 [dLambda -0.04999999999999999]
TCL: Setting parameter firsttimestep to 0
TCL: Setting parameter alchLambda to 0.29999999999999966
Info: NONBONDED TABLE R-SQUARED SPACING: 0.0625
Info: NONBONDED TABLE SIZE: 705 POINTS
TCL: Setting parameter alchLambda2 to 0.24999999999999967
Info: NONBONDED TABLE R-SQUARED SPACING: 0.0625
Info: NONBONDED TABLE SIZE: 705 POINTS
TCL: Running for 1500000 steps
ETITLE: TS BOND ANGLE DIHED IMPRP ELECT VDW BOUNDARY MISC KINETIC TOTAL TEMP POTENTIAL TOTALAVG TEMPAVG PRESSURE GPRESSURE VOLUME PRESSAVG GPRESSAVG
ENERGY: 0 4.5059 7.5080 4.5966 0.0000 -10565.4157 1485.2030 0.0000 0.0000 1736.6639 -7326.9383 300.1645 -9063.6022 -7326.9383 300.1645 696.3379 772.4426 29582.4506 696.3379 772.4426
ENERGY: 300000 3.1731 9.2987 5.4519 0.0000 -10538.4761 1435.8862 0.0000 0.0000 1790.7450 -7293.9212 309.5119 -9084.6662 -7326.9885 306.9995 82.0834 83.8846 29869.8497 636.9214 691.6404
ENERGY: 600000 1.9718 11.5817 7.6701 0.0000 -10409.5403 1375.7848 0.0000 0.0000 1722.0113 -7290.5207 297.6320 -9012.5320 -7322.0375 304.0826 -261.9408 -193.0948 30330.6007 462.5501 528.3429
ENERGY: 900000 3.7026 8.4132 9.3492 0.0000 -10762.4623 1585.4473 0.0000 0.0000 1710.1592 -7445.3908 295.5835 -9155.5500 -7345.8083 302.2524 1485.5700 1531.4008 29122.9311 530.9938 590.5066
ENERGY: 1200000 2.3470 9.3107 6.6027 0.0000 -10612.7482 1422.3513 0.0000 0.0000 1726.0133 -7446.1231 298.3237 -9172.1364 -7361.6826 301.5331 -257.6142 -171.8639 29762.1544 412.4490 475.2797
ENERGY: 1500000 4.0297 10.5734 8.7841 0.0000 -10486.3213 1373.3961 0.0000 0.0000 1714.4949 -7375.0430 296.3328 -9089.5379 -7359.0471 301.2939 -608.5166 -527.5445 30053.3529 265.5519 330.4579
TCL: Running FEP window  16: Lambda1 0.24999999999999967 Lambda2 0.19999999999999968 [dLambda -0.04999999999999999]
TCL: Setting parameter firsttimestep to 0
TCL: Setting parameter alchLambda to 0.24999999999999967
Info: NONBONDED TABLE R-SQUARED SPACING: 0.0625
Info: NONBONDED TABLE SIZE: 705 POINTS
TCL: Setting parameter alchLambda2 to 0.19999999999999968
Info: NONBONDED TABLE R-SQUARED SPACING: 0.0625
Info: NONBONDED TABLE SIZE: 705 POINTS
TCL: Running for 1500000 steps
ETITLE: TS BOND ANGLE DIHED IMPRP ELECT VDW BOUNDARY MISC KINETIC TOTAL TEMP POTENTIAL TOTALAVG TEMPAVG PRESSURE GPRESSURE VOLUME PRESSAVG GPRESSAVG
ENERGY: 0 4.0297 10.5734 8.7841 0.0000 -10486.3218 1374.1013 0.0000 0.0000 1713.6340 -7375.1993 296.1840 -9088.8333 -7375.1993 296.1840 -610.9653 -525.8082 30053.3529 -610.9653 -525.8082
ENERGY: 300000 2.9540 4.7502 4.8746 0.0000 -10497.6676 1427.2239 0.0000 0.0000 1751.6349 -7306.2301 302.7521 -9057.8650 -7319.4711 303.6453 180.2457 280.6761 30089.3862 -259.8246 -198.6263
ENERGY: 600000 3.3152 5.0523 6.1028 0.0000 -10410.8669 1306.8477 0.0000 0.0000 1701.7171 -7387.8318 294.1243 -9089.5488 -7349.0406 301.5573 -1203.4300 -1100.1992 30109.4168 -315.1453 -228.6321
ENERGY: 900000 4.6502 5.1666 6.7950 0.0000 -10496.2802 1398.5991 0.0000 0.0000 1716.8071 -7364.2622 296.7325 -9081.0693 -7349.9855 300.1617 -212.6735 -114.1624 29829.3245 -298.5760 -219.1692
ENERGY: 1200000 2.6689 5.4553 3.3349 0.0000 -10560.6622 1474.7432 0.0000 0.0000 1731.0438 -7343.4161 299.1932 -9074.4599 -7338.2347 299.8857 612.0482 621.7020 29754.1033 -164.7046 -92.2358
ENERGY: 1500000 2.6046 8.9017 3.4350 0.0000 -10460.6625 1405.1555 0.0000 0.0000 1733.8112 -7306.7545 299.6715 -9040.5657 -7332.8404 300.3492 143.2169 180.4149 29788.2349 -106.2474 -37.3938
TCL: Running FEP window  17: Lambda1 0.19999999999999968 Lambda2 0.1499999999999997 [dLambda -0.04999999999999999]
TCL: Setting parameter firsttimestep to 0
TCL: Setting parameter alchLambda to 0.19999999999999968
Info: NONBONDED TABLE R-SQUARED SPACING: 0.0625
Info: NONBONDED TABLE SIZE: 705 POINTS
TCL: Setting parameter alchLambda2 to 0.1499999999999997
Info: NONBONDED TABLE R-SQUARED SPACING: 0.0625
Info: NONBONDED TABLE SIZE: 705 POINTS
TCL: Running for 1500000 steps
ETITLE: TS BOND ANGLE DIHED IMPRP ELECT VDW BOUNDARY MISC KINETIC TOTAL TEMP POTENTIAL TOTALAVG TEMPAVG PRESSURE GPRESSURE VOLUME PRESSAVG GPRESSAVG
ENERGY: 0 2.6046 8.9017 3.4350 0.0000 -10460.6632 1405.4049 0.0000 0.0000 1732.9540 -7307.3630 299.5233 -9040.3170 -7307.3630 299.5233 101.4712 176.1347 29788.2349 101.4712 176.1347
ENERGY: 300000 3.0787 9.4661 6.7857 0.0000 -10563.2942 1424.0557 0.0000 0.0000 1747.9311 -7371.9768 302.1119 -9119.9079 -7351.0310 298.5812 -169.4122 -95.3535 29835.1032 -19.0747 53.8437
ENERGY: 600000 4.6405 8.3254 5.4226 0.0000 -10573.9996 1439.3181 0.0000 0.0000 1711.2337 -7405.0593 295.7692 -9116.2930 -7366.2383 298.5710 532.0179 547.3665 29394.2464 34.6903 95.2973
ENERGY: 900000 5.2264 7.1582 5.8545 0.0000 -10536.8441 1407.2951 0.0000 0.0000 1717.1907 -7394.1191 296.7988 -9111.3098 -7375.4402 298.3296 -36.8067 27.4452 29675.1471 -186.9023 -129.4629
ENERGY: 1200000 1.6205 6.9585 5.5474 0.0000 -10356.1782 1355.3533 0.0000 0.0000 1690.8719 -7295.8265 292.2499 -8986.6984 -7362.7574 298.5078 -410.0561 -366.1848 30133.8440 -172.4378 -110.6591
ENERGY: 1500000 2.9277 10.2289 7.8745 0.0000 -10587.3874 1497.7847 0.0000 0.0000 1731.1788 -7337.3929 299.2165 -9068.5717 -7361.5638 298.7408 558.8450 623.0500 29829.1896 -85.5210 -19.2505
TCL: Running FEP window  18: Lambda1 0.1499999999999997 Lambda2 0.09999999999999969 [dLambda -0.05 ]
TCL: Setting parameter firsttimestep to 0
TCL: Setting parameter alchLambda to 0.1499999999999997
Info: NONBONDED TABLE R-SQUARED SPACING: 0.0625
Info: NONBONDED TABLE SIZE: 705 POINTS
TCL: Setting parameter alchLambda2 to 0.09999999999999969
Info: NONBONDED TABLE R-SQUARED SPACING: 0.0625
Info: NONBONDED TABLE SIZE: 705 POINTS
TCL: Running for 1500000 steps
ETITLE: TS BOND ANGLE DIHED IMPRP ELECT VDW BOUNDARY MISC KINETIC TOTAL TEMP POTENTIAL TOTALAVG TEMPAVG PRESSURE GPRESSURE VOLUME PRESSAVG GPRESSAVG
ENERGY: 0 2.9277 10.2289 7.8745 0.0000 -10587.3879 1497.5028 0.0000 0.0000 1730.3324 -7338.5217 299.0702 -9068.8541 -7338.5217 299.0702 550.3412 620.3891 29829.1896 550.3412 620.3891
ENERGY: 300000 3.7222 4.2586 7.0498 0.0000 -10388.2771 1329.9463 0.0000 0.0000 1703.4923 -7339.8080 294.4312 -9043.3003 -7391.2493 295.2295 -920.9209 -781.2209 30351.1217 130.2842 207.9147
ENERGY: 600000 5.7549 7.5756 6.5966 0.0000 -10468.8274 1369.6872 0.0000 0.0000 1723.3108 -7355.9023 297.8566 -9079.2132 -7378.1524 298.1231 -363.0459 -273.1416 29752.2128 88.8166 161.8378
ENERGY: 900000 4.8190 10.1381 7.9725 0.0000 -10645.6536 1511.6577 0.0000 0.0000 1743.3526 -7367.7137 301.3206 -9111.0663 -7373.1223 299.1334 885.0105 912.7422 29398.9843 130.0657 204.2026
ENERGY: 1200000 1.5997 9.2729 4.7855 0.0000 -10386.5922 1256.3469 0.0000 0.0000 1726.0044 -7388.5829 298.3221 -9114.5872 -7376.0027 298.9096 -1242.5454 -1225.3492 29677.0683 42.9834 110.8893
ENERGY: 1500000 2.8487 9.3777 6.2395 0.0000 -10651.0758 1510.4364 0.0000 0.0000 1734.4742 -7387.6992 299.7861 -9122.1734 -7376.2346 299.2605 132.4384 253.3643 30441.6690 99.3539 170.8232
TCL: Running FEP window  19: Lambda1 0.09999999999999969 Lambda2 0.049999999999999684 [dLambda -0.05 ]
TCL: Setting parameter firsttimestep to 0
TCL: Setting parameter alchLambda to 0.09999999999999969
Info: NONBONDED TABLE R-SQUARED SPACING: 0.0625
Info: NONBONDED TABLE SIZE: 705 POINTS
TCL: Setting parameter alchLambda2 to 0.049999999999999684
Info: NONBONDED TABLE R-SQUARED SPACING: 0.0625
Info: NONBONDED TABLE SIZE: 705 POINTS
TCL: Running for 1500000 steps
ETITLE: TS BOND ANGLE DIHED IMPRP ELECT VDW BOUNDARY MISC KINETIC TOTAL TEMP POTENTIAL TOTALAVG TEMPAVG PRESSURE GPRESSURE VOLUME PRESSAVG GPRESSAVG
ENERGY: 0 2.8487 9.3777 6.2395 0.0000 -10651.0764 1510.4864 0.0000 0.0000 1733.6181 -7388.5060 299.6381 -9122.1240 -7388.5060 299.6381 154.6496 251.0176 30441.6690 154.6496 251.0176
ENERGY: 300000 3.5232 13.8620 6.7446 0.0000 -10446.3143 1396.2186 0.0000 0.0000 1714.0347 -7311.9313 296.2533 -9025.9660 -7325.2933 300.4411 94.6540 132.5400 29886.5958 -20.3196 59.1334
ENERGY: 600000 4.6334 6.9848 3.1485 0.0000 -10542.3520 1384.0021 0.0000 0.0000 1719.8837 -7423.6994 297.2642 -9143.5832 -7357.8330 299.4935 -519.3898 -430.8032 29643.9977 2.7944 72.3255
ENERGY: 900000 2.7668 9.1878 4.9567 0.0000 -10370.1804 1317.2631 0.0000 0.0000 1743.0605 -7292.9455 301.2701 -9036.0059 -7347.3981 300.7620 -766.7095 -642.4846 29922.4379 -158.8819 -93.9513
ENERGY: 1200000 1.6721 8.4874 5.9998 0.0000 -10592.0845 1437.1278 0.0000 0.0000 1738.6225 -7400.1748 300.5031 -9138.7973 -7355.5840 300.9221 -48.9829 31.6952 29915.6047 -108.7520 -47.4815
ENERGY: 1500000 1.1510 10.1770 5.5932 0.0000 -10421.9579 1376.8102 0.0000 0.0000 1729.1749 -7299.0515 298.8701 -9028.2264 -7349.9491 300.7375 -492.3348 -406.3661 30477.7810 -107.2766 -36.1914
TCL: Running FEP window  20: Lambda1 0.049999999999999684 Lambda2 0.0    [dLambda -0.049999999999999684]
TCL: Setting parameter firsttimestep to 0
TCL: Setting parameter alchLambda to 0.049999999999999684
Info: NONBONDED TABLE R-SQUARED SPACING: 0.0625
Info: NONBONDED TABLE SIZE: 705 POINTS
TCL: Setting parameter alchLambda2 to 0.0
Info: NONBONDED TABLE R-SQUARED SPACING: 0.0625
Info: NONBONDED TABLE SIZE: 705 POINTS
TCL: Running for 1500000 steps
ETITLE: TS BOND ANGLE DIHED IMPRP ELECT VDW BOUNDARY MISC KINETIC TOTAL TEMP POTENTIAL TOTALAVG TEMPAVG PRESSURE GPRESSURE VOLUME PRESSAVG GPRESSAVG
ENERGY: 0 1.1510 10.1770 5.5932 0.0000 -10421.9563 1377.1517 0.0000 0.0000 1728.2825 -7299.6008 298.7159 -9027.8833 -7299.6008 298.7159 -487.6226 -407.8346 30477.7810 -487.6226 -407.8346
ENERGY: 300000 6.2589 8.1656 5.9582 0.0000 -10421.7712 1402.5233 0.0000 0.0000 1722.1663 -7276.6990 297.6588 -8998.8653 -7309.4363 300.6950 -39.2835 22.1885 29919.7702 38.9838 96.5514
ENERGY: 600000 2.6236 10.9329 6.9163 0.0000 -10450.6394 1357.1340 0.0000 0.0000 1730.3019 -7342.7306 299.0649 -9073.0325 -7322.9175 300.9765 -498.7665 -442.6335 30041.6288 -22.1784 32.4993
ENERGY: 900000 5.6599 7.7521 7.1769 0.0000 -10446.5163 1391.1327 0.0000 0.0000 1730.6414 -7304.1533 299.1236 -9034.7947 -7313.0637 299.8323 -171.3513 -151.4553 29815.3222 16.3736 72.2812
ENERGY: 1200000 2.0935 8.3784 6.9547 0.0000 -10681.9930 1553.7473 0.0000 0.0000 1684.9168 -7425.9022 291.2206 -9110.8191 -7335.9849 298.9087 1066.5134 1121.4128 29639.8104 18.2967 71.5864
ENERGY: 1500000 4.5995 9.7944 6.0593 0.0000 -10462.9655 1328.8886 0.0000 0.0000 1767.0110 -7346.6125 305.4097 -9113.6236 -7339.1876 299.7856 -906.4229 -780.5896 29925.9032 -7.2491 40.0387
TCL: Exiting due to exit command.
