Info: SIMULATION PARAMETERS:
Info: TIMESTEP               2
Info: NUMBER OF STEPS        0
Info: STEPS PER CYCLE        10
Info: PERIODIC CELL BASIS 1  30.4219 0 0
Info: PERIODIC CELL BASIS 2  0 30.8568 0
Info: PERIODIC CELL BASIS 3  0 0 32.535
Info: PERIODIC CELL CENTER   0 0 0
Info: WRAPPING WATERS AROUND PERIODIC BOUNDARIES ON OUTPUT.
Info: WRAPPING ALL CLUSTERS AROUND PERIODIC BOUNDARIES ON OUTPUT.
Info: FIRST LDB TIMESTEP     50
Info: LAST LDB TIMESTEP     -1
Info: HOM BACKGROUND SCALING 1
Info: PME BACKGROUND SCALING 1
Info: MIN ATOMS PER PATCH    40
Info: EMPTY PATCH LOAD       40 ATOMS
Info: VELOCITY FILE          mobley_6338073_equil.vel
Info: CENTER OF MASS MOVING INITIALLY? NO
Info: DIELECTRIC             1
Info: EXCLUDE                SCALED ONE-FOUR
Info: 1-4 ELECTROSTATICS SCALED BY 0.833333
Info: MODIFIED 1-4 VDW PARAMETERS WILL BE USED
Info: DCD FILENAME           mobley_6338073_prod.dcd
Info: DCD FREQUENCY          100000
Info: DCD FIRST STEP         100000
Info: DCD FILE WILL CONTAIN UNIT CELL DATA
Info: XST FILENAME           mobley_6338073_prod.xst
Info: XST FREQUENCY          100000
Info: NO VELOCITY DCD OUTPUT
Info: NO FORCE DCD OUTPUT
Info: OUTPUT FILENAME        mobley_6338073_prod
Info: BINARY OUTPUT FILES WILL BE USED
Info: RESTART FILENAME       mobley_6338073_prod.restart
Info: RESTART FREQUENCY      100000
Info: BINARY RESTART FILES WILL BE USED
Info: CUTOFF                 9
Info: PAIRLIST DISTANCE      11
Info: PAIRLIST SHRINK RATE   0.01
Info: PAIRLIST GROW RATE     0.01
Info: PAIRLIST TRIGGER       0.3
Info: PAIRLISTS PER CYCLE    2
Info: PAIRLISTS ENABLED
Info: MARGIN                 2
Info: HYDROGEN GROUP CUTOFF  2.5
Info: PATCH DIMENSION        15.5
Info: ENERGY OUTPUT STEPS    100000
Info: ENERGY EVALUATION STEPS    100000
Info: OUTPUT ENERGY PRECISION 4
Info: CROSSTERM ENERGY INCLUDED IN DIHEDRAL
Info: TIMING OUTPUT STEPS    1000000
Info: PRESSURE OUTPUT STEPS  100000
Info: ALCHEMICAL FEP ON
Info: FEP CURRENT LAMBDA VALUE     1
Info: FEP COMPARISON LAMBDA VALUE  0.95
Info: FEP INTRA-ALCHEMICAL NON-BONDED INTERACTIONS WILL BE RETAINED
Info: FEP INTRA-ALCHEMICAL BONDED INTERACTIONS WILL BE RETAINED
Info: FEP VDW SHIFTING COEFFICIENT 5
Info: FEP ELEC. ACTIVE FOR ANNIHILATED PARTICLES BETWEEN LAMBDA = 0 AND LAMBDA = 0.5
Info: FEP ELEC. ACTIVE FOR EXNIHILATED PARTICLES BETWEEN LAMBDA = 0.5 AND LAMBDA = 1
Info: FEP VDW ACTIVE FOR ANNIHILATED PARTICLES BETWEEN LAMBDA = 0 AND LAMBDA = 1
Info: FEP VDW ACTIVE FOR EXNIHILATED PARTICLES BETWEEN LAMBDA = 0 AND LAMBDA = 1
Info: FEP BOND ACTIVE FOR ANNIHILATED PARTICLES BETWEEN LAMBDA = 1 AND LAMBDA = 1
Info: FEP BOND ACTIVE FOR EXNIHILATED PARTICLES BETWEEN LAMBDA = 0 AND LAMBDA = 0
Info: LANGEVIN DYNAMICS ACTIVE
Info: LANGEVIN TEMPERATURE   300
Info: LANGEVIN USING BBK INTEGRATOR
Info: LANGEVIN DAMPING COEFFICIENT IS 1 INVERSE PS
Info: LANGEVIN DYNAMICS APPLIED TO HYDROGENS
Info: LANGEVIN PISTON PRESSURE CONTROL ACTIVE
Info:        TARGET PRESSURE IS 1.01325 BAR
Info:     OSCILLATION PERIOD IS 50 FS
Info:             DECAY TIME IS 25 FS
Info:     PISTON TEMPERATURE IS 300 K
Info:       PRESSURE CONTROL IS GROUP-BASED
Info:    INITIAL STRAIN RATE IS 0.000415575 0.000415575 0.000415575
Info:       CELL FLUCTUATION IS ISOTROPIC
Info: PARTICLE MESH EWALD (PME) ACTIVE
Info: PME TOLERANCE               1e-06
Info: PME EWALD COEFFICIENT       0.348832
Info: PME INTERPOLATION ORDER     4
Info: PME GRID DIMENSIONS         32 32 36
Info: PME MAXIMUM GRID SPACING    1
Info: PME CALCULATION WILL BE PERFORMED ON GPU
Info: FULL ELECTROSTATIC EVALUATION FREQUENCY      2
Info: USING VERLET I (r-RESPA) MTS SCHEME.
Info: C1 SPLITTING OF LONG RANGE ELECTROSTATICS
Info: PLACING ATOMS IN PATCHES BY HYDROGEN GROUPS
Info: RIGID BONDS TO HYDROGEN : ALL
Info:         ERROR TOLERANCE : 1e-08
Info:          MAX ITERATIONS : 100
Info: RIGID WATER USING SETTLE ALGORITHM
Info: RANDOM NUMBER SEED     1744001308
Info: USE HYDROGEN BONDS?    NO
Info: Using AMBER format force field!
Info: AMBER PARM FILE        mobley_6338073.prmtop
Info: COORDINATE PDB         mobley_6338073.pdb
Info: Exclusions will be read from PARM file!
Info: SCNB (VDW SCALING)     2
Info: USING ARITHMETIC MEAN TO COMBINE L-J SIGMA PARAMETERS
Info: BINARY COORDINATES     mobley_6338073_equil.coor
Info: SUMMARY OF PARAMETERS:
Info: 11 BONDS
Info: 16 ANGLES
Info:   16 HARMONIC
Info:   0 COSINE-BASED
Info: 8 DIHEDRAL
Info: 0 IMPROPER
Info: 0 CROSSTERM
Info: 0 VDW
Info: 45 VDW_PAIRS
Info: 0 NBTHOLE_PAIRS
Info: To read alchdata from file: mobley_6338073.pdb
Info: To read alchflag data from column: 5
Info: STRUCTURE SUMMARY:
Info: 2948 ATOMS
Info: 2948 BONDS
Info: 61 ANGLES
Info: 78 DIHEDRALS
Info: 0 IMPROPERS
Info: 0 CROSSTERMS
Info: 3079 EXCLUSIONS
Info: 2932 RIGID BONDS
Info: ALCH: 0 ATOMS TO DISAPPEAR IN FINAL STATE
Info: ALCH: 35 ATOMS TO APPEAR IN FINAL STATE
Info: 5912 DEGREES OF FREEDOM
Info: 987 HYDROGEN GROUPS
Info: 4 ATOMS IN LARGEST HYDROGEN GROUP
Info: 987 MIGRATION GROUPS
Info: 4 ATOMS IN LARGEST MIGRATION GROUP
Info: TOTAL MASS = 17734.9 amu
Info: TOTAL CHARGE = 4.09782e-08 e
Info: MASS DENSITY = 0.96427 g/cm^3
Info: ATOM DENSITY = 0.0965247 atoms/A^3
Info: ADDED 0 IMPLICIT EXCLUSIONS
Info: NONBONDED TABLE R-SQUARED SPACING: 0.0625
Info: NONBONDED TABLE SIZE: 705 POINTS
Info: REMOVING COM VELOCITY -0.0322748 -0.0599344 -0.0485345
Info: Use 3D box decompostion in PME FFT.
Info: Updated CUDA force table with 4096 elements.
Info: Updated CUDA LJ table with 9 x 9 elements.
Info: Found 38 unique exclusion lists needing 152 bytes
TCL: Running for 1500000 steps
ETITLE: TS BOND ANGLE DIHED IMPRP ELECT VDW BOUNDARY MISC KINETIC TOTAL TEMP POTENTIAL TOTALAVG TEMPAVG PRESSURE GPRESSURE VOLUME PRESSAVG GPRESSAVG
ENERGY: 0 4.3689 15.5283 9.0324 0.0000 -11003.4036 1357.0299 0.0000 0.0000 1710.0995 -7907.3448 291.1235 -9617.4442 -7907.3448 291.1235 -631.7476 -551.5742 30541.4146 -631.7476 -551.5742
ENERGY: 300000 10.3709 22.7720 9.2523 0.0000 -11188.7745 1473.7700 0.0000 0.0000 1750.2142 -7922.3950 297.9526 -9672.6093 -7888.4266 297.0809 397.9192 516.0534 29770.7048 82.6192 139.6688
ENERGY: 600000 5.9916 20.5520 2.8649 0.0000 -11057.0840 1419.1065 0.0000 0.0000 1800.8691 -7807.6998 306.5760 -9608.5690 -7861.8736 299.9246 50.8717 134.0510 30196.0348 77.0840 141.0639
ENERGY: 900000 3.3676 21.6753 13.0370 0.0000 -11128.5189 1445.6549 0.0000 0.0000 1782.5696 -7862.2145 303.4607 -9644.7841 -7861.5149 300.2501 135.0663 178.1180 30057.0778 -17.0707 41.9785
ENERGY: 1200000 4.5456 22.1076 6.8017 0.0000 -11042.5151 1452.1289 0.0000 0.0000 1777.0307 -7779.9005 302.5178 -9556.9312 -7857.8946 300.1919 431.6941 447.9055 30458.6770 -38.1302 18.5686
ENERGY: 1500000 10.0965 19.3789 6.8386 0.0000 -11166.1943 1467.8386 0.0000 0.0000 1766.8889 -7895.1528 300.7913 -9662.0417 -7848.3770 301.0435 319.2310 375.2568 30459.5272 -96.7702 -42.5481
TCL: Running FEP window   2: Lambda1 0.95   Lambda2 0.8999999999999999 [dLambda -0.050000000000000044]
TCL: Setting parameter firsttimestep to 0
TCL: Setting parameter alchLambda to 0.95
Info: NONBONDED TABLE R-SQUARED SPACING: 0.0625
Info: NONBONDED TABLE SIZE: 705 POINTS
TCL: Setting parameter alchLambda2 to 0.8999999999999999
Info: NONBONDED TABLE R-SQUARED SPACING: 0.0625
Info: NONBONDED TABLE SIZE: 705 POINTS
TCL: Running for 1500000 steps
ETITLE: TS BOND ANGLE DIHED IMPRP ELECT VDW BOUNDARY MISC KINETIC TOTAL TEMP POTENTIAL TOTALAVG TEMPAVG PRESSURE GPRESSURE VOLUME PRESSAVG GPRESSAVG
ENERGY: 0 10.0965 19.3789 6.8386 0.0000 -11163.2410 1466.5931 0.0000 0.0000 1766.0382 -7894.2958 300.6464 -9660.3340 -7894.2958 300.6464 247.4912 333.6134 30459.5272 247.4912 333.6134
ENERGY: 300000 8.8450 16.9447 5.2117 0.0000 -10951.2539 1337.6360 0.0000 0.0000 1734.6926 -7847.9239 295.3102 -9582.6165 -7854.6344 300.6450 -931.5691 -841.9404 30744.1533 -402.3071 -328.8237
ENERGY: 600000 4.2617 20.2912 11.2635 0.0000 -11042.7799 1414.4133 0.0000 0.0000 1722.2769 -7870.2732 293.1966 -9592.5502 -7842.5970 301.3350 -242.3678 -138.6255 30421.4118 -255.1199 -181.0923
ENERGY: 900000 7.3509 21.5811 11.3371 0.0000 -11058.2022 1395.0451 0.0000 0.0000 1754.7590 -7868.1290 298.7263 -9622.8880 -7846.8528 301.4209 -174.5719 -139.5400 30112.5342 -143.0588 -68.5751
ENERGY: 1200000 5.6146 22.1401 11.1306 0.0000 -11053.2701 1386.1821 0.0000 0.0000 1724.9722 -7903.2305 293.6554 -9628.2027 -7842.5485 300.1664 -621.1272 -511.3528 30620.7218 -101.0201 -25.6689
ENERGY: 1500000 4.0335 18.0792 11.2411 0.0000 -10907.6323 1310.6235 0.0000 0.0000 1767.9218 -7795.7332 300.9671 -9563.6550 -7850.0646 299.8957 -870.0410 -804.8014 30579.2058 -137.2363 -62.0349
TCL: Running FEP window   3: Lambda1 0.8999999999999999 Lambda2 0.8499999999999999 [dLambda -0.050000000000000044]
TCL: Setting parameter firsttimestep to 0
TCL: Setting parameter alchLambda to 0.8999999999999999
Info: NONBONDED TABLE R-SQUARED SPACING: 0.0625
Info: NONBONDED TABLE SIZE: 705 POINTS
TCL: Setting parameter alchLambda2 to 0.8499999999999999
Info: NONBONDED TABLE R-SQUARED SPACING: 0.0625
Info: NONBONDED TABLE SIZE: 705 POINTS
TCL: Running for 1500000 steps
ETITLE: TS BOND ANGLE DIHED IMPRP ELECT VDW BOUNDARY MISC KINETIC TOTAL TEMP POTENTIAL TOTALAVG TEMPAVG PRESSURE GPRESSURE VOLUME PRESSAVG GPRESSAVG
ENERGY: 0 4.0335 18.0792 11.2411 0.0000 -10905.2075 1311.0279 0.0000 0.0000 1767.0565 -7793.7692 300.8198 -9560.8257 -7793.7692 300.8198 -893.6485 -815.3469 30579.2058 -893.6485 -815.3469
ENERGY: 300000 9.0683 18.3020 9.5403 0.0000 -11068.3945 1485.5281 0.0000 0.0000 1741.8007 -7804.1550 296.5203 -9545.9557 -7819.1888 300.8082 383.3717 448.0936 30543.6834 -332.4063 -261.8336
ENERGY: 600000 8.1109 29.5960 8.7363 0.0000 -10957.3850 1335.9647 0.0000 0.0000 1758.4870 -7816.4902 299.3609 -9574.9771 -7836.2427 300.1488 -797.6501 -813.4010 30697.1061 -206.5568 -154.5171
ENERGY: 900000 6.8169 21.5760 7.0692 0.0000 -11123.5408 1445.5561 0.0000 0.0000 1747.1308 -7895.3918 297.4277 -9642.5226 -7849.4769 299.5391 138.3022 167.6282 29843.0736 -83.2428 -44.2604
ENERGY: 1200000 7.1640 13.3650 7.3461 0.0000 -10911.8578 1304.4051 0.0000 0.0000 1741.0006 -7838.5770 296.3841 -9579.5777 -7842.0390 299.9799 -1170.9013 -1072.1137 30507.1513 -55.2760 -9.2256
ENERGY: 1500000 7.4249 20.3790 8.4532 0.0000 -11070.7108 1413.2831 0.0000 0.0000 1769.3596 -7851.8110 301.2119 -9621.1706 -7841.9960 299.9204 -387.9064 -307.6347 30578.2076 -102.2093 -51.0154
TCL: Running FEP window   4: Lambda1 0.8499999999999999 Lambda2 0.7999999999999998 [dLambda -0.050000000000000044]
TCL: Setting parameter firsttimestep to 0
TCL: Setting parameter alchLambda to 0.8499999999999999
Info: NONBONDED TABLE R-SQUARED SPACING: 0.0625
Info: NONBONDED TABLE SIZE: 705 POINTS
TCL: Setting parameter alchLambda2 to 0.7999999999999998
Info: NONBONDED TABLE R-SQUARED SPACING: 0.0625
Info: NONBONDED TABLE SIZE: 705 POINTS
TCL: Running for 1500000 steps
ETITLE: TS BOND ANGLE DIHED IMPRP ELECT VDW BOUNDARY MISC KINETIC TOTAL TEMP POTENTIAL TOTALAVG TEMPAVG PRESSURE GPRESSURE VOLUME PRESSAVG GPRESSAVG
ENERGY: 0 7.4249 20.3790 8.4532 0.0000 -11067.4950 1412.9143 0.0000 0.0000 1768.5088 -7849.8147 301.0670 -9618.3235 -7849.8147 301.0670 -408.4410 -331.1487 30578.2076 -408.4410 -331.1487
ENERGY: 300000 11.3529 22.1095 5.9722 0.0000 -11148.9165 1438.8418 0.0000 0.0000 1771.0589 -7899.5812 301.5011 -9670.6401 -7829.4994 303.9411 209.3745 246.3508 30018.7118 131.8296 200.3347
ENERGY: 600000 4.5720 22.9698 5.8011 0.0000 -11076.8529 1443.7991 0.0000 0.0000 1791.6707 -7808.0402 305.0101 -9599.7109 -7837.3929 301.8965 329.7884 474.2932 30046.4001 72.1986 147.3594
ENERGY: 900000 7.3950 28.3130 6.3171 0.0000 -11018.8535 1398.6298 0.0000 0.0000 1835.2513 -7742.9473 312.4291 -9578.1986 -7818.6920 303.0630 -290.7076 -227.6936 30397.1100 38.1955 109.2707
ENERGY: 1200000 8.7365 20.4705 5.4357 0.0000 -10896.7464 1333.8077 0.0000 0.0000 1730.2794 -7798.0166 294.5589 -9528.2960 -7818.9266 302.0433 -727.3811 -643.6655 30864.3719 -67.4067 2.8654
ENERGY: 1500000 5.9015 21.6452 8.1838 0.0000 -11201.1900 1480.9255 0.0000 0.0000 1719.8340 -7964.7000 292.7807 -9684.5339 -7834.1484 300.9998 -9.0252 82.7592 30095.7311 -66.5027 5.0589
TCL: Running FEP window   5: Lambda1 0.7999999999999998 Lambda2 0.7499999999999998 [dLambda -0.050000000000000044]
TCL: Setting parameter firsttimestep to 0
TCL: Setting parameter alchLambda to 0.7999999999999998
Info: NONBONDED TABLE R-SQUARED SPACING: 0.0625
Info: NONBONDED TABLE SIZE: 705 POINTS
TCL: Setting parameter alchLambda2 to 0.7499999999999998
Info: NONBONDED TABLE R-SQUARED SPACING: 0.0625
Info: NONBONDED TABLE SIZE: 705 POINTS
TCL: Running for 1500000 steps
ETITLE: TS BOND ANGLE DIHED IMPRP ELECT VDW BOUNDARY MISC KINETIC TOTAL TEMP POTENTIAL TOTALAVG TEMPAVG PRESSURE GPRESSURE VOLUME PRESSAVG GPRESSAVG
ENERGY: 0 5.9015 21.6452 8.1838 0.0000 -11197.0761 1479.2409 0.0000 0.0000 1718.9795 -7963.1251 292.6353 -9682.1046 -7963.1251 292.6353 -30.5735 49.2559 30095.7311 -30.5735 49.2559
ENERGY: 300000 6.1506 17.7124 8.8860 0.0000 -11044.4269 1437.7963 0.0000 0.0000 1761.4355 -7812.4461 299.8629 -9573.8816 -7884.8386 295.8769 -42.1791 -32.2223 30484.4463 -43.9857 3.5230
ENERGY: 600000 7.7634 18.8482 8.2760 0.0000 -10990.3156 1346.9700 0.0000 0.0000 1738.1918 -7870.2662 295.9059 -9608.4580 -7881.3633 295.8949 -579.0596 -502.0110 30131.5832 -114.8654 -46.0279
ENERGY: 900000 7.1688 23.3218 4.6128 0.0000 -11086.9932 1465.3669 0.0000 0.0000 1758.9976 -7827.5254 299.4479 -9586.5230 -7863.4168 299.2775 184.5791 264.8193 30641.0723 -84.1953 -19.9239
ENERGY: 1200000 10.8361 20.5498 6.2288 0.0000 -11065.1115 1413.2375 0.0000 0.0000 1789.8295 -7824.4298 304.6966 -9614.2593 -7847.0425 301.1822 -153.9826 -109.0268 30209.2600 -137.9159 -69.1580
ENERGY: 1500000 5.2910 18.3170 4.9713 0.0000 -11061.2065 1429.8634 0.0000 0.0000 1751.9091 -7850.8547 298.2411 -9602.7638 -7842.1847 300.3995 129.5565 132.6431 30411.2728 -136.9939 -80.2544
TCL: Running FEP window   6: Lambda1 0.7499999999999998 Lambda2 0.6999999999999997 [dLambda -0.050000000000000044]
TCL: Setting parameter firsttimestep to 0
TCL: Setting parameter alchLambda to 0.7499999999999998
Info: NONBONDED TABLE R-SQUARED SPACING: 0.0625
Info: NONBONDED TABLE SIZE: 705 POINTS
TCL: Setting parameter alchLambda2 to 0.6999999999999997
Info: NONBONDED TABLE R-SQUARED SPACING: 0.0625
Info: NONBONDED TABLE SIZE: 705 POINTS
TCL: Running for 1500000 steps
ETITLE: TS BOND ANGLE DIHED IMPRP ELECT VDW BOUNDARY MISC KINETIC TOTAL TEMP POTENTIAL TOTALAVG TEMPAVG PRESSURE GPRESSURE VOLUME PRESSAVG GPRESSAVG
ENERGY: 0 5.2910 18.3170 4.9713 0.0000 -11057.8854 1429.5436 0.0000 0.0000 1751.0267 -7848.7358 298.0909 -9599.7625 -7848.7358 298.0909 39.5014 115.5033 30411.2728 39.5014 115.5033
ENERGY: 300000 7.7508 23.0970 5.1711 0.0000 -11115.4897 1482.9878 0.0000 0.0000 1758.4378 -7838.0452 299.3525 -9596.4830 -7849.3411 298.2828 663.4087 756.3547 29917.6979 -2.5177 76.2422
ENERGY: 600000 17.8748 28.0258 7.5151 0.0000 -11152.0112 1463.6875 0.0000 0.0000 1795.1629 -7839.7451 305.6045 -9634.9080 -7842.9730 298.9531 41.6064 82.2801 30475.5135 190.8903 257.4748
ENERGY: 900000 5.0960 14.6481 4.3781 0.0000 -10893.4220 1313.8275 0.0000 0.0000 1742.3387 -7813.1338 296.6119 -9555.4725 -7838.7663 298.7047 -987.9560 -846.2891 30668.9915 61.9561 143.8393
ENERGY: 1200000 6.9187 17.8210 6.3244 0.0000 -11191.8127 1514.0505 0.0000 0.0000 1772.5243 -7874.1737 301.7506 -9646.6980 -7836.1632 298.8563 750.9808 764.7366 29927.5968 -1.3783 76.3632
ENERGY: 1500000 6.8513 24.1354 6.6901 0.0000 -10985.7813 1336.6655 0.0000 0.0000 1713.2010 -7898.2380 291.6515 -9611.4390 -7845.4151 298.3187 -1215.5060 -1206.0517 30799.4485 -72.9912 -3.1792
TCL: Running FEP window   7: Lambda1 0.6999999999999997 Lambda2 0.6499999999999997 [dLambda -0.050000000000000044]
TCL: Setting parameter firsttimestep to 0
TCL: Setting parameter alchLambda to 0.6999999999999997
Info: NONBONDED TABLE R-SQUARED SPACING: 0.0625
Info: NONBONDED TABLE SIZE: 705 POINTS
TCL: Setting parameter alchLambda2 to 0.6499999999999997
Info: NONBONDED TABLE R-SQUARED SPACING: 0.0625
Info: NONBONDED TABLE SIZE: 705 POINTS
TCL: Running for 1500000 steps
ETITLE: TS BOND ANGLE DIHED IMPRP ELECT VDW BOUNDARY MISC KINETIC TOTAL TEMP POTENTIAL TOTALAVG TEMPAVG PRESSURE GPRESSURE VOLUME PRESSAVG GPRESSAVG
ENERGY: 0 6.8513 24.1354 6.6901 0.0000 -10984.0641 1336.5050 0.0000 0.0000 1712.3015 -7897.5809 291.4984 -9609.8823 -7897.5809 291.4984 -1290.7446 -1216.5638 30799.4485 -1290.7446 -1216.5638
ENERGY: 300000 7.2661 26.1128 6.0219 0.0000 -11142.1111 1484.7351 0.0000 0.0000 1797.2812 -7820.6940 305.9652 -9617.9752 -7837.6645 300.4880 235.9673 352.2916 30279.4310 -397.5231 -312.4845
ENERGY: 600000 3.3905 21.2077 3.8418 0.0000 -11230.5708 1545.4503 0.0000 0.0000 1773.5133 -7883.1672 301.9190 -9656.6805 -7853.2474 300.2982 1087.4726 1091.9606 29468.9098 -293.8021 -223.9047
ENERGY: 900000 9.4267 25.3278 4.2119 0.0000 -11132.6943 1445.0808 0.0000 0.0000 1701.5801 -7947.0672 289.6732 -9648.6472 -7858.7523 298.2514 203.0056 225.0985 29855.2069 -269.2305 -193.2473
ENERGY: 1200000 5.6946 21.3332 8.2864 0.0000 -11154.9467 1437.1903 0.0000 0.0000 1775.4511 -7906.9911 302.2489 -9682.4422 -7857.9370 299.3736 51.3528 59.2024 29584.7857 -28.7724 34.1987
ENERGY: 1500000 6.8158 23.3834 6.9147 0.0000 -10962.0162 1347.9248 0.0000 0.0000 1817.6110 -7759.3664 309.4261 -9576.9775 -7843.9010 299.9503 -577.5828 -485.7489 30157.6502 -52.8524 12.6036
TCL: Running FEP window   8: Lambda1 0.6499999999999997 Lambda2 0.5999999999999996 [dLambda -0.050000000000000044]
TCL: Setting parameter firsttimestep to 0
TCL: Setting parameter alchLambda to 0.6499999999999997
Info: NONBONDED TABLE R-SQUARED SPACING: 0.0625
Info: NONBONDED TABLE SIZE: 705 POINTS
TCL: Setting parameter alchLambda2 to 0.5999999999999996
Info: NONBONDED TABLE R-SQUARED SPACING: 0.0625
Info: NONBONDED TABLE SIZE: 705 POINTS
TCL: Running for 1500000 steps
ETITLE: TS BOND ANGLE DIHED IMPRP ELECT VDW BOUNDARY MISC KINETIC TOTAL TEMP POTENTIAL TOTALAVG TEMPAVG PRESSURE GPRESSURE VOLUME PRESSAVG GPRESSAVG
ENERGY: 0 6.8157 23.3834 6.9147 0.0000 -10960.4518 1348.4903 0.0000 0.0000 1816.7220 -7758.1256 309.2747 -9574.8476 -7758.1256 309.2747 -586.1492 -492.6766 30157.6502 -586.1492 -492.6766
ENERGY: 300000 3.9592 26.1048 6.8661 0.0000 -11019.7994 1430.1739 0.0000 0.0000 1735.7054 -7816.9901 295.4826 -9552.6955 -7803.9016 301.2145 -170.2770 -99.6944 30416.9845 19.8991 81.2796
ENERGY: 600000 8.1636 23.1865 3.3773 0.0000 -11067.4551 1420.8388 0.0000 0.0000 1750.7254 -7861.1634 298.0396 -9611.8889 -7804.9063 301.0908 2.8035 33.6467 30166.6056 -158.9009 -95.6076
ENERGY: 900000 8.0066 20.7936 4.3480 0.0000 -11085.6116 1439.3880 0.0000 0.0000 1780.0446 -7833.0307 303.0308 -9613.0753 -7813.4585 301.1842 -43.9287 78.5392 29899.1574 -92.9449 -28.5174
ENERGY: 1200000 7.6566 28.8643 7.9435 0.0000 -11067.0835 1433.3453 0.0000 0.0000 1791.6702 -7797.6035 305.0100 -9589.2737 -7805.3663 302.2362 -18.1911 3.5661 30387.7238 -48.3035 6.3983
ENERGY: 1500000 7.7564 29.5526 4.0417 0.0000 -11044.5006 1440.2462 0.0000 0.0000 1766.6201 -7796.2836 300.7455 -9562.9037 -7799.6268 301.7446 330.4381 357.2457 30073.8295 -32.7923 25.9148
TCL: Running FEP window   9: Lambda1 0.5999999999999996 Lambda2 0.5499999999999996 [dLambda -0.050000000000000044]
TCL: Setting parameter firsttimestep to 0
TCL: Setting parameter alchLambda to 0.5999999999999996
Info: NONBONDED TABLE R-SQUARED SPACING: 0.0625
Info: NONBONDED TABLE SIZE: 705 POINTS
TCL: Setting parameter alchLambda2 to 0.5499999999999996
Info: NONBONDED TABLE R-SQUARED SPACING: 0.0625
Info: NONBONDED TABLE SIZE: 705 POINTS
TCL: Running for 1500000 steps
ETITLE: TS BOND ANGLE DIHED IMPRP ELECT VDW BOUNDARY MISC KINETIC TOTAL TEMP POTENTIAL TOTALAVG TEMPAVG PRESSURE GPRESSURE VOLUME PRESSAVG GPRESSAVG
ENERGY: 0 7.7564 29.5527 4.0417 0.0000 -11043.3048 1440.9413 0.0000 0.0000 1765.7747 -7795.2381 300.6016 -9561.0128 -7795.2381 300.6016 281.6832 350.8381 30073.8295 281.6832 350.8381
ENERGY: 300000 6.4719 22.2278 6.9875 0.0000 -11076.9986 1423.8204 0.0000 0.0000 1787.2913 -7830.1997 304.2645 -9617.4910 -7786.8999 302.5831 -301.7120 -235.5837 30333.3824 -392.8322 -345.5072
ENERGY: 600000 9.8772 21.4280 6.2687 0.0000 -11262.3332 1560.2860 0.0000 0.0000 1722.9916 -7941.4817 293.3183 -9664.4733 -7824.1370 300.5760 695.9559 752.5870 30191.1623 -204.9146 -161.6284
ENERGY: 900000 5.2784 26.9338 6.1328 0.0000 -11162.7564 1530.4789 0.0000 0.0000 1764.1433 -7829.7892 300.3238 -9593.9325 -7823.5286 299.1363 387.3955 421.6356 30696.0429 -92.3779 -42.3592
ENERGY: 1200000 12.8772 25.6114 7.6573 0.0000 -11095.3951 1490.1744 0.0000 0.0000 1748.0996 -7810.9751 297.5926 -9559.0747 -7823.7946 299.8012 509.4166 606.6255 30072.4938 9.7060 61.8309
ENERGY: 1500000 5.7811 26.5857 5.7216 0.0000 -11025.8853 1429.7534 0.0000 0.0000 1813.8045 -7744.2390 308.7781 -9558.0435 -7816.1547 300.4903 193.4471 212.4923 30167.3184 -3.1936 49.4379
TCL: Running FEP window  10: Lambda1 0.5499999999999996 Lambda2 0.4999999999999996 [dLambda -0.04999999999999999]
TCL: Setting parameter firsttimestep to 0
TCL: Setting parameter alchLambda to 0.5499999999999996
Info: NONBONDED TABLE R-SQUARED SPACING: 0.0625
Info: NONBONDED TABLE SIZE: 705 POINTS
TCL: Setting parameter alchLambda2 to 0.4999999999999996
Info: NONBONDED TABLE R-SQUARED SPACING: 0.0625
Info: NONBONDED TABLE SIZE: 705 POINTS
TCL: Running for 1500000 steps
ETITLE: TS BOND ANGLE DIHED IMPRP ELECT VDW BOUNDARY MISC KINETIC TOTAL TEMP POTENTIAL TOTALAVG TEMPAVG PRESSURE GPRESSURE VOLUME PRESSAVG GPRESSAVG
ENERGY: 0 5.7812 26.5857 5.7216 0.0000 -11025.5800 1430.5969 0.0000 0.0000 1812.9135 -7743.9812 308.6264 -9556.8947 -7743.9812 308.6264 144.3915 204.5881 30167.3184 144.3915 204.5881
ENERGY: 300000 7.5551 18.7896 5.5916 0.0000 -10841.3893 1316.4578 0.0000 0.0000 1760.0335 -7732.9617 299.6242 -9492.9953 -7798.9574 301.3595 -678.6623 -631.4739 30396.6116 -158.8171 -110.6676
ENERGY: 600000 4.3554 17.7808 5.2247 0.0000 -11016.1557 1399.1213 0.0000 0.0000 1727.2180 -7862.4555 294.0378 -9589.6735 -7798.6196 299.5992 -438.8405 -320.8135 30520.7896 -374.5237 -315.2006
ENERGY: 900000 6.3945 16.7586 6.8374 0.0000 -10977.1099 1297.2121 0.0000 0.0000 1750.3057 -7899.6016 297.9682 -9649.9073 -7813.7585 300.7617 -1194.9476 -1186.2086 29921.6549 -377.5034 -318.7979
ENERGY: 1200000 6.0663 27.9446 7.6215 0.0000 -10878.8096 1336.3440 0.0000 0.0000 1810.3276 -7690.5056 308.1862 -9500.8332 -7817.1913 300.3972 -422.0838 -376.8818 30452.3459 -264.5098 -205.5035
ENERGY: 1500000 10.6516 17.2971 4.0805 0.0000 -11026.5844 1370.9269 0.0000 0.0000 1805.0469 -7818.5815 307.2872 -9623.6284 -7819.1949 301.1699 -323.5864 -260.2138 29940.2103 -211.9086 -151.6879
TCL: Running FEP window  11: Lambda1 0.4999999999999996 Lambda2 0.4499999999999996 [dLambda -0.04999999999999999]
TCL: Setting parameter firsttimestep to 0
TCL: Setting parameter alchLambda to 0.4999999999999996
Info: NONBONDED TABLE R-SQUARED SPACING: 0.0625
Info: NONBONDED TABLE SIZE: 705 POINTS
TCL: Setting parameter alchLambda2 to 0.4499999999999996
Info: NONBONDED TABLE R-SQUARED SPACING: 0.0625
Info: NONBONDED TABLE SIZE: 705 POINTS
TCL: Running for 1500000 steps
ETITLE: TS BOND ANGLE DIHED IMPRP ELECT VDW BOUNDARY MISC KINETIC TOTAL TEMP POTENTIAL TOTALAVG TEMPAVG PRESSURE GPRESSURE VOLUME PRESSAVG GPRESSAVG
ENERGY: 0 10.6516 17.2971 4.0805 0.0000 -11026.1269 1371.3836 0.0000 0.0000 1804.1954 -7818.5187 307.1422 -9622.7141 -7818.5187 307.1422 -357.5465 -267.4937 29940.2103 -357.5465 -267.4937
ENERGY: 300000 6.5160 30.6195 3.8927 0.0000 -11123.0499 1502.7539 0.0000 0.0000 1719.5845 -7859.6835 292.7383 -9579.2680 -7826.9705 299.4786 429.4524 479.8052 30057.1494 22.4093 83.0812
ENERGY: 600000 5.9294 22.5383 7.0934 0.0000 -11030.6545 1420.8574 0.0000 0.0000 1758.3497 -7815.8864 299.3376 -9574.2360 -7821.2457 299.9201 -95.4707 -25.5449 30325.7869 -63.2596 12.3393
ENERGY: 900000 9.3996 26.4468 2.2089 0.0000 -11088.7075 1443.5520 0.0000 0.0000 1767.9109 -7839.1892 300.9652 -9607.1001 -7817.1974 299.7696 -200.7481 -86.8218 30356.1762 -126.8762 -43.5120
ENERGY: 1200000 6.3736 19.3965 5.7666 0.0000 -11005.4646 1447.5508 0.0000 0.0000 1745.6002 -7780.7770 297.1671 -9526.3772 -7817.0007 299.5848 79.9615 127.5352 30845.7773 -57.7472 21.9854
ENERGY: 1500000 6.1873 12.1233 7.4081 0.0000 -10962.8069 1399.9434 0.0000 0.0000 1824.2097 -7712.9352 310.5494 -9537.1448 -7820.6951 300.4943 -14.1940 25.0613 30303.8326 -47.1159 21.4712
TCL: Running FEP window  12: Lambda1 0.4499999999999996 Lambda2 0.39999999999999963 [dLambda -0.04999999999999999]
TCL: Setting parameter firsttimestep to 0
TCL: Setting parameter alchLambda to 0.4499999999999996
Info: NONBONDED TABLE R-SQUARED SPACING: 0.0625
Info: NONBONDED TABLE SIZE: 705 POINTS
TCL: Setting parameter alchLambda2 to 0.39999999999999963
Info: NONBONDED TABLE R-SQUARED SPACING: 0.0625
Info: NONBONDED TABLE SIZE: 705 POINTS
TCL: Running for 1500000 steps
ETITLE: TS BOND ANGLE DIHED IMPRP ELECT VDW BOUNDARY MISC KINETIC TOTAL TEMP POTENTIAL TOTALAVG TEMPAVG PRESSURE GPRESSURE VOLUME PRESSAVG GPRESSAVG
ENERGY: 0 6.1873 12.1233 7.4081 0.0000 -10962.8049 1400.7157 0.0000 0.0000 1823.3397 -7713.0308 310.4013 -9536.3705 -7713.0308 310.4013 -53.1736 22.0728 30303.8326 -53.1736 22.0728
ENERGY: 300000 8.7295 25.4279 4.6351 0.0000 -11078.0869 1408.0987 0.0000 0.0000 1759.0568 -7872.1389 299.4579 -9631.1957 -7811.9442 303.3359 -314.3639 -275.1330 30084.6603 -249.2503 -198.1780
ENERGY: 600000 11.7666 18.5585 4.8411 0.0000 -10928.9982 1327.1667 0.0000 0.0000 1764.6568 -7802.0084 300.4113 -9566.6652 -7829.5824 302.7115 -1010.1500 -959.6184 30662.5076 -144.4847 -96.8718
ENERGY: 900000 8.7961 20.3689 5.7747 0.0000 -10872.9665 1336.8537 0.0000 0.0000 1782.4429 -7718.7303 303.4391 -9501.1732 -7810.6987 301.9907 -588.6015 -478.5033 30807.2519 -251.4899 -192.1756
ENERGY: 1200000 11.2269 21.7692 7.8307 0.0000 -11083.7673 1471.0809 0.0000 0.0000 1777.0975 -7794.7622 302.5291 -9571.8598 -7812.3105 302.0699 402.6012 456.5273 29996.1465 -126.1134 -65.7973
ENERGY: 1500000 5.3779 21.0766 5.4435 0.0000 -11105.6107 1444.7886 0.0000 0.0000 1732.8305 -7896.0937 294.9932 -9628.9242 -7816.5186 301.0825 -63.7345 -20.7497 30351.2102 -39.8147 20.8583
TCL: Running FEP window  13: Lambda1 0.39999999999999963 Lambda2 0.34999999999999964 [dLambda -0.04999999999999999]
TCL: Setting parameter firsttimestep to 0
TCL: Setting parameter alchLambda to 0.39999999999999963
Info: NONBONDED TABLE R-SQUARED SPACING: 0.0625
Info: NONBONDED TABLE SIZE: 705 POINTS
TCL: Setting parameter alchLambda2 to 0.34999999999999964
Info: NONBONDED TABLE R-SQUARED SPACING: 0.0625
Info: NONBONDED TABLE SIZE: 705 POINTS
TCL: Running for 1500000 steps
ETITLE: TS BOND ANGLE DIHED IMPRP ELECT VDW BOUNDARY MISC KINETIC TOTAL TEMP POTENTIAL TOTALAVG TEMPAVG PRESSURE GPRESSURE VOLUME PRESSAVG GPRESSAVG
ENERGY: 0 5.3779 21.0766 5.4435 0.0000 -11105.6118 1445.6367 0.0000 0.0000 1731.9699 -7896.1072 294.8467 -9628.0772 -7896.1072 294.8467 -106.2358 -26.1577 30351.2102 -106.2358 -26.1577
ENERGY: 300000 6.3174 24.0988 4.5120 0.0000 -10867.2170 1367.7163 0.0000 0.0000 1763.0577 -7701.5148 300.1390 -9464.5725 -7809.6557 300.2366 -320.3537 -242.5014 30510.9692 -301.9510 -225.9275
ENERGY: 600000 4.0327 20.2040 4.9437 0.0000 -10968.1819 1406.0388 0.0000 0.0000 1790.7875 -7742.1752 304.8597 -9532.9628 -7803.0811 302.3086 -184.5876 -148.7069 30317.7218 -163.6211 -97.7386
ENERGY: 900000 8.1682 27.7281 10.0244 0.0000 -11164.8888 1531.2047 0.0000 0.0000 1756.8175 -7830.9460 299.0767 -9587.7635 -7801.0754 302.6576 815.3833 835.3293 30201.7433 -145.2765 -85.1318
ENERGY: 1200000 8.2589 19.2467 6.2767 0.0000 -11005.4191 1417.0085 0.0000 0.0000 1749.7487 -7804.8796 297.8733 -9554.6283 -7797.8198 302.7677 -104.6465 -91.4817 30367.3709 -123.1943 -72.2860
ENERGY: 1500000 9.3209 24.7961 5.7692 0.0000 -11060.2222 1393.1880 0.0000 0.0000 1814.8910 -7812.2569 308.9630 -9627.1479 -7798.0254 302.7203 -531.0796 -468.8373 30543.8801 -90.0780 -33.1459
TCL: Running FEP window  14: Lambda1 0.34999999999999964 Lambda2 0.29999999999999966 [dLambda -0.04999999999999999]
TCL: Setting parameter firsttimestep to 0
TCL: Setting parameter alchLambda to 0.34999999999999964
Info: NONBONDED TABLE R-SQUARED SPACING: 0.0625
Info: NONBONDED TABLE SIZE: 705 POINTS
TCL: Setting parameter alchLambda2 to 0.29999999999999966
Info: NONBONDED TABLE R-SQUARED SPACING: 0.0625
Info: NONBONDED TABLE SIZE: 705 POINTS
TCL: Running for 1500000 steps
ETITLE: TS BOND ANGLE DIHED IMPRP ELECT VDW BOUNDARY MISC KINETIC TOTAL TEMP POTENTIAL TOTALAVG TEMPAVG PRESSURE GPRESSURE VOLUME PRESSAVG GPRESSAVG
ENERGY: 0 9.3209 24.7961 5.7692 0.0000 -11060.2199 1393.6193 0.0000 0.0000 1813.9955 -7812.7188 308.8106 -9626.7143 -7812.7188 308.8106 -557.1381 -476.0343 30543.8801 -557.1381 -476.0343
ENERGY: 300000 4.9868 17.3372 9.4724 0.0000 -11044.5308 1390.3039 0.0000 0.0000 1764.5214 -7857.9092 300.3882 -9622.4306 -7837.2896 300.0021 -604.2572 -528.5520 30301.4491 -416.7319 -349.5980
ENERGY: 600000 9.3502 29.2119 14.5439 0.0000 -11001.0110 1412.8005 0.0000 0.0000 1806.4684 -7728.6361 307.5292 -9535.1045 -7832.3845 298.4697 300.6939 369.3249 30100.4283 -70.8292 -1.9851
ENERGY: 900000 4.9114 18.7261 6.8780 0.0000 -11093.0606 1432.0497 0.0000 0.0000 1767.7575 -7862.7379 300.9391 -9630.4954 -7818.1482 299.3045 -205.7661 -185.2614 30349.6225 -141.6487 -91.8332
ENERGY: 1200000 12.0687 17.4550 4.3115 0.0000 -10922.6241 1408.1592 0.0000 0.0000 1757.4986 -7723.1312 299.1927 -9480.6298 -7811.4721 300.5622 41.3809 57.2020 30560.0612 -88.5367 -33.5358
ENERGY: 1500000 11.0414 24.7876 6.2929 0.0000 -10876.8097 1315.1490 0.0000 0.0000 1804.6890 -7714.8497 307.2263 -9519.5388 -7809.7439 300.3881 -1098.9671 -1055.9965 30770.2731 -140.6883 -85.9545
TCL: Running FEP window  15: Lambda1 0.29999999999999966 Lambda2 0.24999999999999967 [dLambda -0.04999999999999999]
TCL: Setting parameter firsttimestep to 0
TCL: Setting parameter alchLambda to 0.29999999999999966
Info: NONBONDED TABLE R-SQUARED SPACING: 0.0625
Info: NONBONDED TABLE SIZE: 705 POINTS
TCL: Setting parameter alchLambda2 to 0.24999999999999967
Info: NONBONDED TABLE R-SQUARED SPACING: 0.0625
Info: NONBONDED TABLE SIZE: 705 POINTS
TCL: Running for 1500000 steps
ETITLE: TS BOND ANGLE DIHED IMPRP ELECT VDW BOUNDARY MISC KINETIC TOTAL TEMP POTENTIAL TOTALAVG TEMPAVG PRESSURE GPRESSURE VOLUME PRESSAVG GPRESSAVG
ENERGY: 0 11.0414 24.7876 6.2929 0.0000 -10876.8086 1316.1468 0.0000 0.0000 1803.8241 -7714.7157 307.0790 -9518.5399 -7714.7157 307.0790 -1140.8086 -1055.4959 30770.2731 -1140.8086 -1055.4959
ENERGY: 300000 7.1850 27.7460 9.2647 0.0000 -11049.9987 1442.8277 0.0000 0.0000 1834.2092 -7728.7661 312.2517 -9562.9753 -7773.7627 308.2821 113.4459 190.1889 29904.3223 -262.0714 -173.2071
ENERGY: 600000 4.9837 28.1326 7.4600 0.0000 -10978.5545 1365.2156 0.0000 0.0000 1744.5664 -7828.1961 296.9911 -9572.7625 -7787.9912 304.8594 -583.7180 -519.5599 30285.9687 -297.8898 -214.2839
ENERGY: 900000 5.3570 18.1053 6.4696 0.0000 -11066.0525 1429.5898 0.0000 0.0000 1818.2443 -7788.2864 309.5339 -9606.5308 -7785.7304 305.3360 -72.8216 42.0353 30027.5270 -93.8906 -13.5299
ENERGY: 1200000 4.8616 23.7438 6.5870 0.0000 -10995.7842 1367.7746 0.0000 0.0000 1798.5864 -7794.2309 306.1874 -9592.8172 -7801.8701 304.5441 -643.5148 -550.2289 30220.9821 -50.8930 27.9177
ENERGY: 1500000 6.5000 35.2128 6.6065 0.0000 -11144.2864 1492.2020 0.0000 0.0000 1753.8418 -7849.9232 298.5702 -9603.7650 -7810.1035 304.1839 255.6390 325.8141 30329.8386 -11.6146 63.6130
TCL: Running FEP window  16: Lambda1 0.24999999999999967 Lambda2 0.19999999999999968 [dLambda -0.04999999999999999]
TCL: Setting parameter firsttimestep to 0
TCL: Setting parameter alchLambda to 0.24999999999999967
Info: NONBONDED TABLE R-SQUARED SPACING: 0.0625
Info: NONBONDED TABLE SIZE: 705 POINTS
TCL: Setting parameter alchLambda2 to 0.19999999999999968
Info: NONBONDED TABLE R-SQUARED SPACING: 0.0625
Info: NONBONDED TABLE SIZE: 705 POINTS
TCL: Running for 1500000 steps
ETITLE: TS BOND ANGLE DIHED IMPRP ELECT VDW BOUNDARY MISC KINETIC TOTAL TEMP POTENTIAL TOTALAVG TEMPAVG PRESSURE GPRESSURE VOLUME PRESSAVG GPRESSAVG
ENERGY: 0 6.5000 35.2128 6.6065 0.0000 -11144.2846 1492.4138 0.0000 0.0000 1752.9546 -7850.5968 298.4191 -9603.5514 -7850.5968 298.4191 236.5557 317.3573 30329.8386 236.5557 317.3573
ENERGY: 300000 5.0249 19.9558 4.9823 0.0000 -11039.1083 1456.8333 0.0000 0.0000 1765.5960 -7786.7161 300.5711 -9552.3121 -7797.0858 301.9695 16.4908 51.8681 30479.4354 6.2509 72.6351
ENERGY: 600000 9.7372 25.4942 5.5078 0.0000 -11069.4220 1450.9430 0.0000 0.0000 1776.3691 -7801.3707 302.4051 -9577.7398 -7794.7116 302.7517 82.5624 121.5342 29993.6993 27.1861 73.4429
ENERGY: 900000 11.8356 24.3322 5.8657 0.0000 -11026.2607 1364.8515 0.0000 0.0000 1720.8775 -7898.4981 292.9584 -9619.3756 -7830.2674 300.8293 -852.5171 -811.9812 30139.5597 -45.8206 -10.6671
ENERGY: 1200000 6.9021 17.3029 8.7671 0.0000 -10994.7213 1430.6547 0.0000 0.0000 1775.2101 -7755.8845 302.2078 -9531.0946 -7815.0686 300.6861 14.3862 139.0442 30229.8954 -73.3559 -33.9059
ENERGY: 1500000 11.2017 21.1310 4.9898 0.0000 -11168.5160 1538.6579 0.0000 0.0000 1821.2414 -7771.2942 310.0441 -9592.5355 -7807.3614 301.1156 849.7477 932.8815 30223.8367 115.8009 161.8806
TCL: Running FEP window  17: Lambda1 0.19999999999999968 Lambda2 0.1499999999999997 [dLambda -0.04999999999999999]
TCL: Setting parameter firsttimestep to 0
TCL: Setting parameter alchLambda to 0.19999999999999968
Info: NONBONDED TABLE R-SQUARED SPACING: 0.0625
Info: NONBONDED TABLE SIZE: 705 POINTS
TCL: Setting parameter alchLambda2 to 0.1499999999999997
Info: NONBONDED TABLE R-SQUARED SPACING: 0.0625
Info: NONBONDED TABLE SIZE: 705 POINTS
TCL: Running for 1500000 steps
ETITLE: TS BOND ANGLE DIHED IMPRP ELECT VDW BOUNDARY MISC KINETIC TOTAL TEMP POTENTIAL TOTALAVG TEMPAVG PRESSURE GPRESSURE VOLUME PRESSAVG GPRESSAVG
ENERGY: 0 11.2017 21.1310 4.9898 0.0000 -11168.5164 1538.6697 0.0000 0.0000 1820.3653 -7772.1589 309.8950 -9592.5242 -7772.1589 309.8950 862.3029 926.4337 30223.8367 862.3029 926.4337
ENERGY: 300000 4.4132 25.6063 5.6980 0.0000 -10935.1396 1318.2814 0.0000 0.0000 1824.6946 -7756.4461 310.6320 -9581.1407 -7827.4420 299.9804 -844.1336 -796.6895 30088.4042 224.2017 312.1956
ENERGY: 600000 9.9191 31.3907 5.6432 0.0000 -11081.5855 1487.0765 0.0000 0.0000 1721.1594 -7826.3966 293.0064 -9547.5561 -7807.5048 300.0563 275.3901 386.7259 30262.9186 109.5259 186.7272
ENERGY: 900000 7.2987 16.1192 10.3237 0.0000 -11210.1718 1514.8084 0.0000 0.0000 1833.1580 -7828.4639 312.0728 -9661.6219 -7807.4930 301.5123 304.5806 410.7884 30116.5540 165.2318 240.5407
ENERGY: 1200000 9.5868 24.2733 6.6137 0.0000 -11043.9972 1418.4014 0.0000 0.0000 1737.4800 -7847.6421 295.7847 -9585.1221 -7816.9430 300.1765 -170.2623 -89.8518 30038.8713 134.1576 211.0199
ENERGY: 1500000 7.6010 20.3836 3.8009 0.0000 -11022.2638 1396.0204 0.0000 0.0000 1771.1135 -7823.3444 301.5104 -9594.4579 -7818.2748 299.7763 -356.0164 -351.2215 30028.2426 94.4284 159.8424
TCL: Running FEP window  18: Lambda1 0.1499999999999997 Lambda2 0.09999999999999969 [dLambda -0.05 ]
TCL: Setting parameter firsttimestep to 0
TCL: Setting parameter alchLambda to 0.1499999999999997
Info: NONBONDED TABLE R-SQUARED SPACING: 0.0625
Info: NONBONDED TABLE SIZE: 705 POINTS
TCL: Setting parameter alchLambda2 to 0.09999999999999969
Info: NONBONDED TABLE R-SQUARED SPACING: 0.0625
Info: NONBONDED TABLE SIZE: 705 POINTS
TCL: Running for 1500000 steps
ETITLE: TS BOND ANGLE DIHED IMPRP ELECT VDW BOUNDARY MISC KINETIC TOTAL TEMP POTENTIAL TOTALAVG TEMPAVG PRESSURE GPRESSURE VOLUME PRESSAVG GPRESSAVG
ENERGY: 0 7.6010 20.3836 3.8009 0.0000 -11022.2635 1394.9021 0.0000 0.0000 1770.2502 -7825.3257 301.3635 -9595.5759 -7825.3257 301.3635 -444.2236 -364.6587 30028.2426 -444.2236 -364.6587
ENERGY: 300000 5.9105 24.1516 8.5940 0.0000 -11056.9387 1395.1622 0.0000 0.0000 1800.3404 -7822.7799 306.4860 -9623.1204 -7818.4797 300.9663 -402.2913 -348.4365 30162.6915 -103.7043 -57.8998
ENERGY: 600000 7.5554 20.1865 9.6150 0.0000 -11194.1569 1567.2438 0.0000 0.0000 1754.1993 -7835.3569 298.6310 -9589.5562 -7812.2287 300.3871 1252.7900 1305.5856 29673.0366 226.2432 282.1544
ENERGY: 900000 7.4877 19.4355 5.0274 0.0000 -11040.3202 1445.8121 0.0000 0.0000 1805.1617 -7757.3958 307.3067 -9562.5576 -7805.0003 300.9360 257.2225 283.6245 30157.2828 138.2689 187.1243
ENERGY: 1200000 2.2547 24.2472 4.9924 0.0000 -11033.3371 1396.6489 0.0000 0.0000 1721.9909 -7883.2030 293.1479 -9605.1940 -7816.4482 299.8101 -351.6867 -323.3321 29943.1927 17.9834 62.5103
ENERGY: 1500000 10.9297 29.2376 4.8731 0.0000 -11097.9066 1436.8327 0.0000 0.0000 1811.3852 -7804.6483 308.3662 -9616.0336 -7815.3544 301.2343 -283.3202 -201.9744 30688.5979 1.3824 44.6369
TCL: Running FEP window  19: Lambda1 0.09999999999999969 Lambda2 0.049999999999999684 [dLambda -0.05 ]
TCL: Setting parameter firsttimestep to 0
TCL: Setting parameter alchLambda to 0.09999999999999969
Info: NONBONDED TABLE R-SQUARED SPACING: 0.0625
Info: NONBONDED TABLE SIZE: 705 POINTS
TCL: Setting parameter alchLambda2 to 0.049999999999999684
Info: NONBONDED TABLE R-SQUARED SPACING: 0.0625
Info: NONBONDED TABLE SIZE: 705 POINTS
TCL: Running for 1500000 steps
ETITLE: TS BOND ANGLE DIHED IMPRP ELECT VDW BOUNDARY MISC KINETIC TOTAL TEMP POTENTIAL TOTALAVG TEMPAVG PRESSURE GPRESSURE VOLUME PRESSAVG GPRESSAVG
ENERGY: 0 10.9297 29.2376 4.8731 0.0000 -11097.9077 1436.4198 0.0000 0.0000 1810.5366 -7805.9109 308.2217 -9616.4475 -7805.9109 308.2217 -297.6140 -210.0425 30688.5979 -297.6140 -210.0425
ENERGY: 300000 5.1186 15.9315 4.7027 0.0000 -11125.7307 1434.1414 0.0000 0.0000 1787.9182 -7877.9184 304.3712 -9665.8366 -7872.6622 296.3671 -160.9614 -142.5746 29634.4897 -366.9220 -300.5358
ENERGY: 600000 6.0414 31.8165 4.7356 0.0000 -11143.7178 1512.9709 0.0000 0.0000 1797.4290 -7790.7243 305.9903 -9588.1534 -7868.6509 298.8975 539.7588 604.7674 30147.0052 81.0483 142.3247
ENERGY: 900000 7.8579 22.2934 5.2708 0.0000 -10921.1771 1343.8503 0.0000 0.0000 1788.6678 -7753.2369 304.4988 -9541.9047 -7852.9122 300.4438 -601.6881 -559.4532 30243.1904 28.4085 93.2712
ENERGY: 1200000 8.0128 19.5518 7.8842 0.0000 -11039.9109 1416.5187 0.0000 0.0000 1766.8230 -7821.1204 300.7800 -9587.9434 -7846.0037 300.1288 -85.2707 35.1013 29965.2208 -68.3795 2.1345
ENERGY: 1500000 9.0252 16.0718 5.9115 0.0000 -10883.9021 1307.6040 0.0000 0.0000 1764.3620 -7780.9277 300.3611 -9545.2897 -7830.1353 300.9859 -1041.3175 -989.2591 30168.5924 -130.5181 -61.5536
TCL: Running FEP window  20: Lambda1 0.049999999999999684 Lambda2 0.0    [dLambda -0.049999999999999684]
TCL: Setting parameter firsttimestep to 0
TCL: Setting parameter alchLambda to 0.049999999999999684
Info: NONBONDED TABLE R-SQUARED SPACING: 0.0625
Info: NONBONDED TABLE SIZE: 705 POINTS
TCL: Setting parameter alchLambda2 to 0.0
Info: NONBONDED TABLE R-SQUARED SPACING: 0.0625
Info: NONBONDED TABLE SIZE: 705 POINTS
TCL: Running for 1500000 steps
ETITLE: TS BOND ANGLE DIHED IMPRP ELECT VDW BOUNDARY MISC KINETIC TOTAL TEMP POTENTIAL TOTALAVG TEMPAVG PRESSURE GPRESSURE VOLUME PRESSAVG GPRESSAVG
ENERGY: 0 9.0252 16.0718 5.9115 0.0000 -10883.9012 1307.5075 0.0000 0.0000 1763.4623 -7781.9230 300.2079 -9545.3853 -7781.9230 300.2079 -1089.7818 -997.5595 30168.5924 -1089.7818 -997.5595
ENERGY: 300000 9.1581 28.1392 8.4179 0.0000 -11038.8889 1481.4102 0.0000 0.0000 1791.1105 -7720.6530 304.9147 -9511.7634 -7817.2953 298.6501 571.6517 619.4618 30303.6711 -467.5481 -412.5450
ENERGY: 600000 5.0339 16.3637 6.2924 0.0000 -10949.7792 1404.0854 0.0000 0.0000 1736.1431 -7781.8607 295.5572 -9518.0038 -7831.1561 298.4966 -212.5295 -234.3394 30147.1777 -354.4181 -316.6503
ENERGY: 900000 4.7785 24.7669 4.5391 0.0000 -10959.3926 1383.5125 0.0000 0.0000 1714.2082 -7827.5874 291.8230 -9541.7956 -7831.2578 297.6037 -700.9164 -658.9191 30568.3080 -275.9816 -232.3383
ENERGY: 1200000 6.3297 20.0327 4.5300 0.0000 -11052.9455 1401.8512 0.0000 0.0000 1795.0600 -7825.1420 305.5870 -9620.2019 -7826.3749 299.7946 -391.5605 -279.5743 29938.2903 -256.2150 -194.7491
ENERGY: 1500000 5.8895 24.4047 5.1470 0.0000 -11045.8582 1466.1356 0.0000 0.0000 1795.6242 -7748.6572 305.6831 -9544.2814 -7814.0474 300.1280 251.5340 325.5003 29922.7109 -220.4347 -156.6075
TCL: Exiting due to exit command.
