Info: SIMULATION PARAMETERS:
Info: TIMESTEP               2
Info: NUMBER OF STEPS        0
Info: STEPS PER CYCLE        10
Info: PERIODIC CELL BASIS 1  34.3029 0 0
Info: PERIODIC CELL BASIS 2  0 29.0075 0
Info: PERIODIC CELL BASIS 3  0 0 30.6123
Info: PERIODIC CELL CENTER   0 0 0
Info: WRAPPING WATERS AROUND PERIODIC BOUNDARIES ON OUTPUT.
Info: WRAPPING ALL CLUSTERS AROUND PERIODIC BOUNDARIES ON OUTPUT.
Info: FIRST LDB TIMESTEP     50
Info: LAST LDB TIMESTEP     -1
Info: HOM BACKGROUND SCALING 1
Info: PME BACKGROUND SCALING 1
Info: MIN ATOMS PER PATCH    40
Info: EMPTY PATCH LOAD       40 ATOMS
Info: VELOCITY FILE          mobley_588781_equil.vel
Info: CENTER OF MASS MOVING INITIALLY? NO
Info: DIELECTRIC             1
Info: EXCLUDE                SCALED ONE-FOUR
Info: 1-4 ELECTROSTATICS SCALED BY 0.833333
Info: MODIFIED 1-4 VDW PARAMETERS WILL BE USED
Info: DCD FILENAME           mobley_588781_prod.dcd
Info: DCD FREQUENCY          100000
Info: DCD FIRST STEP         100000
Info: DCD FILE WILL CONTAIN UNIT CELL DATA
Info: XST FILENAME           mobley_588781_prod.xst
Info: XST FREQUENCY          100000
Info: NO VELOCITY DCD OUTPUT
Info: NO FORCE DCD OUTPUT
Info: OUTPUT FILENAME        mobley_588781_prod
Info: BINARY OUTPUT FILES WILL BE USED
Info: RESTART FILENAME       mobley_588781_prod.restart
Info: RESTART FREQUENCY      100000
Info: BINARY RESTART FILES WILL BE USED
Info: CUTOFF                 9
Info: PAIRLIST DISTANCE      11
Info: PAIRLIST SHRINK RATE   0.01
Info: PAIRLIST GROW RATE     0.01
Info: PAIRLIST TRIGGER       0.3
Info: PAIRLISTS PER CYCLE    2
Info: PAIRLISTS ENABLED
Info: MARGIN                 2
Info: HYDROGEN GROUP CUTOFF  2.5
Info: PATCH DIMENSION        15.5
Info: ENERGY OUTPUT STEPS    100000
Info: ENERGY EVALUATION STEPS    100000
Info: OUTPUT ENERGY PRECISION 4
Info: CROSSTERM ENERGY INCLUDED IN DIHEDRAL
Info: TIMING OUTPUT STEPS    1000000
Info: PRESSURE OUTPUT STEPS  100000
Info: ALCHEMICAL FEP ON
Info: FEP CURRENT LAMBDA VALUE     0
Info: FEP COMPARISON LAMBDA VALUE  0.05
Info: FEP INTRA-ALCHEMICAL NON-BONDED INTERACTIONS WILL BE RETAINED
Info: FEP INTRA-ALCHEMICAL BONDED INTERACTIONS WILL BE RETAINED
Info: FEP VDW SHIFTING COEFFICIENT 5
Info: FEP ELEC. ACTIVE FOR ANNIHILATED PARTICLES BETWEEN LAMBDA = 0 AND LAMBDA = 0.5
Info: FEP ELEC. ACTIVE FOR EXNIHILATED PARTICLES BETWEEN LAMBDA = 0.5 AND LAMBDA = 1
Info: FEP VDW ACTIVE FOR ANNIHILATED PARTICLES BETWEEN LAMBDA = 0 AND LAMBDA = 1
Info: FEP VDW ACTIVE FOR EXNIHILATED PARTICLES BETWEEN LAMBDA = 0 AND LAMBDA = 1
Info: FEP BOND ACTIVE FOR ANNIHILATED PARTICLES BETWEEN LAMBDA = 1 AND LAMBDA = 1
Info: FEP BOND ACTIVE FOR EXNIHILATED PARTICLES BETWEEN LAMBDA = 0 AND LAMBDA = 0
Info: LANGEVIN DYNAMICS ACTIVE
Info: LANGEVIN TEMPERATURE   300
Info: LANGEVIN USING BBK INTEGRATOR
Info: LANGEVIN DAMPING COEFFICIENT IS 1 INVERSE PS
Info: LANGEVIN DYNAMICS APPLIED TO HYDROGENS
Info: LANGEVIN PISTON PRESSURE CONTROL ACTIVE
Info:        TARGET PRESSURE IS 1.01325 BAR
Info:     OSCILLATION PERIOD IS 50 FS
Info:             DECAY TIME IS 25 FS
Info:     PISTON TEMPERATURE IS 300 K
Info:       PRESSURE CONTROL IS GROUP-BASED
Info:    INITIAL STRAIN RATE IS 2.29938e-05 2.29938e-05 2.29938e-05
Info:       CELL FLUCTUATION IS ISOTROPIC
Info: PARTICLE MESH EWALD (PME) ACTIVE
Info: PME TOLERANCE               1e-06
Info: PME EWALD COEFFICIENT       0.348832
Info: PME INTERPOLATION ORDER     4
Info: PME GRID DIMENSIONS         36 32 32
Info: PME MAXIMUM GRID SPACING    1
Info: PME CALCULATION WILL BE PERFORMED ON GPU
Info: FULL ELECTROSTATIC EVALUATION FREQUENCY      2
Info: USING VERLET I (r-RESPA) MTS SCHEME.
Info: C1 SPLITTING OF LONG RANGE ELECTROSTATICS
Info: PLACING ATOMS IN PATCHES BY HYDROGEN GROUPS
Info: RIGID BONDS TO HYDROGEN : ALL
Info:         ERROR TOLERANCE : 1e-08
Info:          MAX ITERATIONS : 100
Info: RIGID WATER USING SETTLE ALGORITHM
Info: RANDOM NUMBER SEED     1744040171
Info: USE HYDROGEN BONDS?    NO
Info: Using AMBER format force field!
Info: AMBER PARM FILE        mobley_588781.prmtop
Info: COORDINATE PDB         mobley_588781.pdb
Info: Exclusions will be read from PARM file!
Info: SCNB (VDW SCALING)     2
Info: USING ARITHMETIC MEAN TO COMBINE L-J SIGMA PARAMETERS
Info: BINARY COORDINATES     mobley_588781_equil.coor
Info: SUMMARY OF PARAMETERS:
Info: 7 BONDS
Info: 8 ANGLES
Info:   8 HARMONIC
Info:   0 COSINE-BASED
Info: 9 DIHEDRAL
Info: 0 IMPROPER
Info: 0 CROSSTERM
Info: 0 VDW
Info: 21 VDW_PAIRS
Info: 0 NBTHOLE_PAIRS
Info: To read alchdata from file: mobley_588781.pdb
Info: To read alchflag data from column: 5
Info: STRUCTURE SUMMARY:
Info: 2946 ATOMS
Info: 2946 BONDS
Info: 54 ANGLES
Info: 87 DIHEDRALS
Info: 0 IMPROPERS
Info: 0 CROSSTERMS
Info: 3072 EXCLUSIONS
Info: 2934 RIGID BONDS
Info: ALCH: 0 ATOMS TO DISAPPEAR IN FINAL STATE
Info: ALCH: 30 ATOMS TO APPEAR IN FINAL STATE
Info: 5904 DEGREES OF FREEDOM
Info: 984 HYDROGEN GROUPS
Info: 4 ATOMS IN LARGEST HYDROGEN GROUP
Info: 984 MIGRATION GROUPS
Info: 4 ATOMS IN LARGEST MIGRATION GROUP
Info: TOTAL MASS = 17673.8 amu
Info: TOTAL CHARGE = -9.99831e-05 e
Info: MASS DENSITY = 0.963501 g/cm^3
Info: ATOM DENSITY = 0.0967153 atoms/A^3
Info: ADDED 0 IMPLICIT EXCLUSIONS
Info: NONBONDED TABLE R-SQUARED SPACING: 0.0625
Info: NONBONDED TABLE SIZE: 705 POINTS
Info: REMOVING COM VELOCITY 0.0828764 -0.127095 0.202745
Info: Use 3D box decompostion in PME FFT.
Info: Updated CUDA force table with 4096 elements.
Info: Updated CUDA LJ table with 6 x 6 elements.
Info: Found 29 unique exclusion lists needing 124 bytes
TCL: Running for 1500000 steps
ETITLE: TS BOND ANGLE DIHED IMPRP ELECT VDW BOUNDARY MISC KINETIC TOTAL TEMP POTENTIAL TOTALAVG TEMPAVG PRESSURE GPRESSURE VOLUME PRESSAVG GPRESSAVG
ENERGY: 0 3.6227 11.1382 4.6342 0.0000 -10589.2893 1451.6199 0.0000 0.0000 1808.3221 -7309.9522 308.2619 -9118.2743 -7309.9522 308.2619 264.3707 351.1968 30460.5326 264.3707 351.1968
ENERGY: 300000 4.0727 13.5629 6.6063 0.0000 -10624.6390 1441.4010 0.0000 0.0000 1801.4902 -7357.5060 307.0973 -9158.9962 -7343.2575 302.1945 14.5747 84.4417 30105.7702 -32.6894 49.7091
ENERGY: 600000 3.7936 12.3038 4.2245 0.0000 -10596.1984 1461.8309 0.0000 0.0000 1766.4887 -7347.5569 301.1306 -9114.0455 -7367.6237 301.1947 386.0451 444.4928 30102.8660 -199.7622 -127.3374
ENERGY: 900000 2.9354 11.7715 2.8553 0.0000 -10585.4781 1406.8810 0.0000 0.0000 1776.4561 -7384.5788 302.8297 -9161.0349 -7374.9450 301.9197 -343.3294 -222.2755 30131.3020 -196.8267 -119.5041
ENERGY: 1200000 2.5905 8.8281 6.5314 0.0000 -10519.0593 1411.5857 0.0000 0.0000 1690.2361 -7399.2876 288.1320 -9089.5237 -7375.7588 301.1555 -186.4972 -131.2153 30496.1167 -214.6826 -142.3415
ENERGY: 1500000 4.3342 8.7301 5.0097 0.0000 -10619.5662 1399.2876 0.0000 0.0000 1726.3180 -7475.8864 294.2828 -9202.2044 -7374.6017 300.9869 -381.1912 -343.4334 30014.1217 -227.3242 -156.7886
TCL: Running FEP window   2: Lambda1 0.05   Lambda2 0.1    [dLambda 0.05  ]
TCL: Setting parameter firsttimestep to 0
TCL: Setting parameter alchLambda to 0.05
Info: NONBONDED TABLE R-SQUARED SPACING: 0.0625
Info: NONBONDED TABLE SIZE: 705 POINTS
TCL: Setting parameter alchLambda2 to 0.1
Info: NONBONDED TABLE R-SQUARED SPACING: 0.0625
Info: NONBONDED TABLE SIZE: 705 POINTS
TCL: Running for 1500000 steps
ETITLE: TS BOND ANGLE DIHED IMPRP ELECT VDW BOUNDARY MISC KINETIC TOTAL TEMP POTENTIAL TOTALAVG TEMPAVG PRESSURE GPRESSURE VOLUME PRESSAVG GPRESSAVG
ENERGY: 0 4.3342 8.7301 5.0097 0.0000 -10619.5659 1405.9306 0.0000 0.0000 1725.4107 -7470.1505 294.1281 -9195.5612 -7470.1505 294.1281 -423.0957 -333.6088 30014.1217 -423.0957 -333.6088
ENERGY: 300000 3.7541 12.1412 3.7982 0.0000 -10686.6818 1499.9109 0.0000 0.0000 1797.5312 -7369.5462 306.4224 -9167.0774 -7439.7400 297.8111 546.4488 648.5223 29602.2076 -23.7521 64.4474
ENERGY: 600000 5.8086 13.2190 5.9053 0.0000 -10642.3383 1417.5693 0.0000 0.0000 1750.4158 -7449.4202 298.3907 -9199.8360 -7432.9460 299.0016 -355.1050 -226.3449 29851.2928 -202.0071 -114.8568
ENERGY: 900000 6.3952 12.8513 4.9998 0.0000 -10625.7085 1458.2720 0.0000 0.0000 1754.3134 -7388.8769 299.0551 -9143.1903 -7419.6324 299.9153 186.6558 244.3882 30159.5870 -132.9257 -61.5280
ENERGY: 1200000 5.6342 12.2480 3.8326 0.0000 -10591.3460 1395.7581 0.0000 0.0000 1748.5895 -7425.2836 298.0794 -9173.8732 -7421.8846 299.7674 -390.1518 -304.1193 29989.5479 -115.8091 -49.3710
ENERGY: 1500000 6.0607 13.8891 3.6494 0.0000 -10702.7277 1473.9276 0.0000 0.0000 1781.4379 -7423.7629 303.6790 -9205.2008 -7419.6735 299.3952 350.0903 334.7969 29673.1880 -35.4127 21.1729
TCL: Running FEP window   3: Lambda1 0.1    Lambda2 0.15000000000000002 [dLambda 0.05000000000000002]
TCL: Setting parameter firsttimestep to 0
TCL: Setting parameter alchLambda to 0.1
Info: NONBONDED TABLE R-SQUARED SPACING: 0.0625
Info: NONBONDED TABLE SIZE: 705 POINTS
TCL: Setting parameter alchLambda2 to 0.15000000000000002
Info: NONBONDED TABLE R-SQUARED SPACING: 0.0625
Info: NONBONDED TABLE SIZE: 705 POINTS
TCL: Running for 1500000 steps
ETITLE: TS BOND ANGLE DIHED IMPRP ELECT VDW BOUNDARY MISC KINETIC TOTAL TEMP POTENTIAL TOTALAVG TEMPAVG PRESSURE GPRESSURE VOLUME PRESSAVG GPRESSAVG
ENERGY: 0 6.0606 13.8891 3.6494 0.0000 -10702.7280 1477.1502 0.0000 0.0000 1780.5692 -7421.4094 303.5309 -9201.9786 -7421.4094 303.5309 273.5960 347.3305 29673.1880 273.5960 347.3305
ENERGY: 300000 2.7210 15.6456 4.0355 0.0000 -10586.9195 1344.1258 0.0000 0.0000 1814.3246 -7406.0670 309.2851 -9220.3916 -7448.7365 303.1231 -422.7444 -382.8202 29355.1515 -55.5199 -16.8807
ENERGY: 600000 3.8237 10.7508 7.5472 0.0000 -10632.8401 1367.8010 0.0000 0.0000 1780.2545 -7462.6628 303.4772 -9242.9173 -7458.8943 302.4397 -794.8245 -730.9412 29993.9579 -142.4867 -101.1328
ENERGY: 900000 3.5608 17.1497 8.6302 0.0000 -10640.0310 1427.5226 0.0000 0.0000 1759.3380 -7423.8297 299.9116 -9183.1677 -7447.4252 301.3823 -24.4471 15.1426 30003.8706 -103.6372 -55.1399
ENERGY: 1200000 2.0643 16.8510 7.3473 0.0000 -10724.0488 1445.5041 0.0000 0.0000 1763.7492 -7488.5329 300.6636 -9252.2821 -7442.7360 300.5323 43.9229 80.9049 29719.8678 -72.5400 -23.7985
ENERGY: 1500000 2.4099 11.9951 3.4802 0.0000 -10613.5672 1472.5275 0.0000 0.0000 1726.4272 -7396.7273 294.3014 -9123.1544 -7439.2516 300.3262 523.1406 614.8242 29756.4585 -20.1558 36.9434
TCL: Running FEP window   4: Lambda1 0.15000000000000002 Lambda2 0.2    [dLambda 0.04999999999999999]
TCL: Setting parameter firsttimestep to 0
TCL: Setting parameter alchLambda to 0.15000000000000002
Info: NONBONDED TABLE R-SQUARED SPACING: 0.0625
Info: NONBONDED TABLE SIZE: 705 POINTS
TCL: Setting parameter alchLambda2 to 0.2
Info: NONBONDED TABLE R-SQUARED SPACING: 0.0625
Info: NONBONDED TABLE SIZE: 705 POINTS
TCL: Running for 1500000 steps
ETITLE: TS BOND ANGLE DIHED IMPRP ELECT VDW BOUNDARY MISC KINETIC TOTAL TEMP POTENTIAL TOTALAVG TEMPAVG PRESSURE GPRESSURE VOLUME PRESSAVG GPRESSAVG
ENERGY: 0 2.4099 11.9951 3.4802 0.0000 -10613.5663 1474.5514 0.0000 0.0000 1725.5766 -7395.5530 294.1564 -9121.1296 -7395.5530 294.1564 547.0762 630.4866 29756.4585 547.0762 630.4866
ENERGY: 300000 2.4089 13.9239 7.7994 0.0000 -10677.8201 1479.9625 0.0000 0.0000 1725.8926 -7447.8330 294.2102 -9173.7255 -7365.6026 300.6624 558.9914 622.3959 30021.2618 333.7055 387.0236
ENERGY: 600000 4.9780 11.5557 6.9739 0.0000 -10794.4735 1516.5121 0.0000 0.0000 1738.0612 -7516.3926 296.2846 -9254.4538 -7393.0227 299.4628 -14.7305 58.1994 30512.7430 258.1369 316.5347
ENERGY: 900000 3.6335 12.3620 5.3267 0.0000 -10562.8297 1417.8081 0.0000 0.0000 1694.9035 -7428.7959 288.9276 -9123.6994 -7386.2975 298.9536 -221.4866 -185.1485 30353.8608 255.1982 309.5224
ENERGY: 1200000 1.9388 12.2707 7.5162 0.0000 -10544.9587 1379.8861 0.0000 0.0000 1694.9801 -7448.3667 288.9406 -9143.3468 -7387.9384 298.4296 -352.0673 -300.6002 30086.8230 63.1293 115.5679
ENERGY: 1500000 5.1754 11.5542 4.9661 0.0000 -10503.7336 1391.3713 0.0000 0.0000 1765.8315 -7324.8351 301.0186 -9090.6666 -7385.0216 298.9046 -294.6809 -205.8740 29792.4113 12.1040 66.3002
TCL: Running FEP window   5: Lambda1 0.2    Lambda2 0.25   [dLambda 0.04999999999999999]
TCL: Setting parameter firsttimestep to 0
TCL: Setting parameter alchLambda to 0.2
Info: NONBONDED TABLE R-SQUARED SPACING: 0.0625
Info: NONBONDED TABLE SIZE: 705 POINTS
TCL: Setting parameter alchLambda2 to 0.25
Info: NONBONDED TABLE R-SQUARED SPACING: 0.0625
Info: NONBONDED TABLE SIZE: 705 POINTS
TCL: Running for 1500000 steps
ETITLE: TS BOND ANGLE DIHED IMPRP ELECT VDW BOUNDARY MISC KINETIC TOTAL TEMP POTENTIAL TOTALAVG TEMPAVG PRESSURE GPRESSURE VOLUME PRESSAVG GPRESSAVG
ENERGY: 0 5.1754 11.5542 4.9661 0.0000 -10503.7327 1393.4823 0.0000 0.0000 1764.9765 -7323.5781 300.8728 -9088.5546 -7323.5781 300.8728 -280.2870 -190.6243 29792.4113 -280.2870 -190.6243
ENERGY: 300000 1.5036 12.8082 4.3866 0.0000 -10555.6712 1373.9621 0.0000 0.0000 1750.5658 -7412.4447 298.4163 -9163.0105 -7392.7662 300.0253 -354.6312 -314.8899 30222.2082 -72.7365 -4.6699
ENERGY: 600000 3.3649 11.2715 8.9490 0.0000 -10649.5984 1518.4825 0.0000 0.0000 1762.6932 -7344.8374 300.4836 -9107.5305 -7382.5379 300.4193 792.8951 815.4604 30178.0221 30.9461 90.2937
ENERGY: 900000 5.9606 11.0757 4.5530 0.0000 -10536.2377 1403.0542 0.0000 0.0000 1766.3290 -7345.2652 301.1034 -9111.5942 -7370.4339 300.5543 -40.7308 60.9691 30141.2644 -47.2865 13.0889
ENERGY: 1200000 5.8388 11.0767 7.3127 0.0000 -10541.6687 1334.2284 0.0000 0.0000 1800.0706 -7383.1415 306.8553 -9183.2121 -7392.8203 300.0149 -870.6849 -839.8884 30146.3808 -77.1097 -14.8499
ENERGY: 1500000 5.4220 14.6868 8.4984 0.0000 -10575.2610 1377.7862 0.0000 0.0000 1757.3968 -7411.4707 299.5807 -9168.8675 -7395.6463 299.3766 -656.1327 -539.2250 30314.4933 -148.3803 -75.2466
TCL: Running FEP window   6: Lambda1 0.25   Lambda2 0.3    [dLambda 0.04999999999999999]
TCL: Setting parameter firsttimestep to 0
TCL: Setting parameter alchLambda to 0.25
Info: NONBONDED TABLE R-SQUARED SPACING: 0.0625
Info: NONBONDED TABLE SIZE: 705 POINTS
TCL: Setting parameter alchLambda2 to 0.3
Info: NONBONDED TABLE R-SQUARED SPACING: 0.0625
Info: NONBONDED TABLE SIZE: 705 POINTS
TCL: Running for 1500000 steps
ETITLE: TS BOND ANGLE DIHED IMPRP ELECT VDW BOUNDARY MISC KINETIC TOTAL TEMP POTENTIAL TOTALAVG TEMPAVG PRESSURE GPRESSURE VOLUME PRESSAVG GPRESSAVG
ENERGY: 0 5.4220 14.6868 8.4984 0.0000 -10575.2598 1378.7664 0.0000 0.0000 1756.5427 -7411.3434 299.4351 -9167.8861 -7411.3434 299.4351 -613.7829 -529.2409 30314.4933 -613.7829 -529.2409
ENERGY: 300000 2.5464 20.4283 9.7542 0.0000 -10789.0892 1529.2077 0.0000 0.0000 1790.8588 -7436.2938 305.2849 -9227.1526 -7421.3632 301.3668 514.6334 531.0447 29907.0692 -181.7862 -131.9137
ENERGY: 600000 7.9963 11.6696 7.1190 0.0000 -10579.8700 1313.4111 0.0000 0.0000 1794.1098 -7445.5643 305.8391 -9239.6740 -7410.3763 301.8423 -1346.2985 -1343.0485 30199.2195 -306.3156 -252.9704
ENERGY: 900000 3.0198 11.3707 6.8070 0.0000 -10637.4019 1424.6857 0.0000 0.0000 1779.9964 -7411.5224 303.4333 -9191.5188 -7416.2804 301.8126 93.2494 125.3229 29764.8461 -212.3731 -156.2034
ENERGY: 1200000 5.8127 14.9671 6.9218 0.0000 -10502.1944 1325.8983 0.0000 0.0000 1684.7311 -7463.8634 287.1935 -9148.5945 -7420.4376 301.1608 -507.1486 -465.0208 30261.8705 -181.7068 -119.8816
ENERGY: 1500000 3.1662 9.0026 6.1942 0.0000 -10639.4994 1446.3122 0.0000 0.0000 1772.7415 -7402.0827 302.1965 -9174.8242 -7414.0429 300.8722 135.1085 234.5142 30058.9325 -87.2241 -24.1088
TCL: Running FEP window   7: Lambda1 0.3    Lambda2 0.35   [dLambda 0.04999999999999999]
TCL: Setting parameter firsttimestep to 0
TCL: Setting parameter alchLambda to 0.3
Info: NONBONDED TABLE R-SQUARED SPACING: 0.0625
Info: NONBONDED TABLE SIZE: 705 POINTS
TCL: Setting parameter alchLambda2 to 0.35
Info: NONBONDED TABLE R-SQUARED SPACING: 0.0625
Info: NONBONDED TABLE SIZE: 705 POINTS
TCL: Running for 1500000 steps
ETITLE: TS BOND ANGLE DIHED IMPRP ELECT VDW BOUNDARY MISC KINETIC TOTAL TEMP POTENTIAL TOTALAVG TEMPAVG PRESSURE GPRESSURE VOLUME PRESSAVG GPRESSAVG
ENERGY: 0 3.1662 9.0026 6.1942 0.0000 -10639.4996 1447.0224 0.0000 0.0000 1771.8884 -7402.2259 302.0511 -9174.1143 -7402.2259 302.0511 158.3743 247.3667 30058.9325 158.3743 247.3667
ENERGY: 300000 4.1032 6.3121 3.5643 0.0000 -10615.7142 1424.2681 0.0000 0.0000 1798.2011 -7379.2653 306.5366 -9177.4664 -7399.9821 299.2669 -193.5443 -147.1244 30259.0465 196.9974 241.3529
ENERGY: 600000 3.3772 6.8283 4.4336 0.0000 -10645.6440 1457.7809 0.0000 0.0000 1766.4740 -7406.7500 301.1281 -9173.2240 -7398.0632 299.0996 -42.6317 15.5227 30601.3209 92.2591 159.7929
ENERGY: 900000 5.9827 10.0696 4.6433 0.0000 -10580.1255 1485.2170 0.0000 0.0000 1734.5837 -7339.6292 295.6918 -9074.2128 -7393.9462 299.0240 720.4734 791.5989 29906.2533 179.9342 246.2030
ENERGY: 1200000 4.6267 12.1050 4.4345 0.0000 -10529.8945 1411.4370 0.0000 0.0000 1755.2844 -7342.0069 299.2206 -9097.2913 -7389.7523 298.9402 -124.2707 8.1419 30296.7754 192.0565 268.7092
ENERGY: 1500000 2.6571 11.8629 4.7639 0.0000 -10603.4651 1445.6724 0.0000 0.0000 1771.7722 -7366.7365 302.0313 -9138.5088 -7395.4302 297.7108 196.8548 217.6138 30429.6845 134.0856 200.9705
TCL: Running FEP window   8: Lambda1 0.35   Lambda2 0.39999999999999997 [dLambda 0.04999999999999999]
TCL: Setting parameter firsttimestep to 0
TCL: Setting parameter alchLambda to 0.35
Info: NONBONDED TABLE R-SQUARED SPACING: 0.0625
Info: NONBONDED TABLE SIZE: 705 POINTS
TCL: Setting parameter alchLambda2 to 0.39999999999999997
Info: NONBONDED TABLE R-SQUARED SPACING: 0.0625
Info: NONBONDED TABLE SIZE: 705 POINTS
TCL: Running for 1500000 steps
ETITLE: TS BOND ANGLE DIHED IMPRP ELECT VDW BOUNDARY MISC KINETIC TOTAL TEMP POTENTIAL TOTALAVG TEMPAVG PRESSURE GPRESSURE VOLUME PRESSAVG GPRESSAVG
ENERGY: 0 2.6571 11.8629 4.7639 0.0000 -10603.4652 1446.3914 0.0000 0.0000 1770.8668 -7366.9230 301.8769 -9137.7899 -7366.9230 301.8769 155.5575 230.0644 30429.6845 155.5575 230.0644
ENERGY: 300000 3.0798 11.8323 5.7436 0.0000 -10572.7253 1381.1089 0.0000 0.0000 1755.6705 -7415.2902 299.2864 -9170.9607 -7401.8079 302.8580 -300.4672 -211.5640 29762.5542 -332.1606 -244.6642
ENERGY: 600000 3.6228 11.7647 5.7034 0.0000 -10440.2084 1321.5975 0.0000 0.0000 1796.2252 -7301.2948 306.1997 -9097.5200 -7391.8432 303.5835 -669.5429 -619.8752 30453.5379 -301.5753 -220.5920
ENERGY: 900000 1.9610 14.8357 6.0480 0.0000 -10651.0724 1504.6296 0.0000 0.0000 1767.7102 -7355.8880 301.3388 -9123.5982 -7403.2193 301.5637 736.3490 788.7163 30395.7791 -99.4092 -32.4939
ENERGY: 1200000 1.6580 11.4722 6.5371 0.0000 -10632.3549 1434.1438 0.0000 0.0000 1719.0116 -7459.5322 293.0373 -9178.5438 -7396.9787 301.0811 36.6434 96.3302 30108.2219 -68.0076 -2.4002
ENERGY: 1500000 4.3147 16.5918 9.4689 0.0000 -10602.6488 1388.2456 0.0000 0.0000 1769.5109 -7414.5169 301.6458 -9184.0279 -7397.7666 300.7153 -641.2846 -572.4157 30214.8661 -100.3063 -39.0596
TCL: Running FEP window   9: Lambda1 0.39999999999999997 Lambda2 0.44999999999999996 [dLambda 0.04999999999999999]
TCL: Setting parameter firsttimestep to 0
TCL: Setting parameter alchLambda to 0.39999999999999997
Info: NONBONDED TABLE R-SQUARED SPACING: 0.0625
Info: NONBONDED TABLE SIZE: 705 POINTS
TCL: Setting parameter alchLambda2 to 0.44999999999999996
Info: NONBONDED TABLE R-SQUARED SPACING: 0.0625
Info: NONBONDED TABLE SIZE: 705 POINTS
TCL: Running for 1500000 steps
ETITLE: TS BOND ANGLE DIHED IMPRP ELECT VDW BOUNDARY MISC KINETIC TOTAL TEMP POTENTIAL TOTALAVG TEMPAVG PRESSURE GPRESSURE VOLUME PRESSAVG GPRESSAVG
ENERGY: 0 4.3147 16.5918 9.4689 0.0000 -10602.6481 1388.0911 0.0000 0.0000 1768.6279 -7415.5537 301.4953 -9184.1816 -7415.5537 301.4953 -662.0181 -565.2154 30214.8661 -662.0181 -565.2154
ENERGY: 300000 5.3633 12.3024 7.3542 0.0000 -10543.9880 1385.8197 0.0000 0.0000 1759.7221 -7373.4264 299.9771 -9133.1485 -7352.5109 303.2883 -116.9327 -26.6357 29677.2315 -496.9535 -409.5851
ENERGY: 600000 2.5567 13.3001 4.0666 0.0000 -10547.6730 1355.6612 0.0000 0.0000 1729.0277 -7443.0606 294.7447 -9172.0884 -7382.8787 301.7553 -579.7162 -553.5491 29866.3611 -382.6426 -299.1708
ENERGY: 900000 2.7304 6.5555 4.9297 0.0000 -10513.0747 1361.5025 0.0000 0.0000 1743.5786 -7393.7780 297.2252 -9137.3566 -7387.8344 300.0833 -489.0618 -369.6951 29943.0362 -239.5444 -153.4289
ENERGY: 1200000 3.0083 9.3146 5.4008 0.0000 -10850.9740 1599.3738 0.0000 0.0000 1805.1581 -7428.7185 307.7225 -9233.8766 -7388.6700 300.9110 1205.2227 1268.2581 29848.6121 -196.2998 -111.2587
ENERGY: 1500000 6.4084 12.5410 3.9837 0.0000 -10651.7875 1420.1374 0.0000 0.0000 1776.9640 -7431.7529 302.9163 -9208.7170 -7396.6955 300.1501 -179.8489 -129.6304 30243.6732 -176.6494 -99.1076
TCL: Running FEP window  10: Lambda1 0.44999999999999996 Lambda2 0.49999999999999994 [dLambda 0.04999999999999999]
TCL: Setting parameter firsttimestep to 0
TCL: Setting parameter alchLambda to 0.44999999999999996
Info: NONBONDED TABLE R-SQUARED SPACING: 0.0625
Info: NONBONDED TABLE SIZE: 705 POINTS
TCL: Setting parameter alchLambda2 to 0.49999999999999994
Info: NONBONDED TABLE R-SQUARED SPACING: 0.0625
Info: NONBONDED TABLE SIZE: 705 POINTS
TCL: Running for 1500000 steps
ETITLE: TS BOND ANGLE DIHED IMPRP ELECT VDW BOUNDARY MISC KINETIC TOTAL TEMP POTENTIAL TOTALAVG TEMPAVG PRESSURE GPRESSURE VOLUME PRESSAVG GPRESSAVG
ENERGY: 0 6.4085 12.5410 3.9837 0.0000 -10651.7873 1420.0271 0.0000 0.0000 1776.0930 -7432.7340 302.7678 -9208.8270 -7432.7340 302.7678 -207.8832 -119.9630 30243.6732 -207.8832 -119.9630
ENERGY: 300000 2.4732 12.3116 5.1843 0.0000 -10592.2482 1441.6770 0.0000 0.0000 1767.5101 -7363.0920 301.3047 -9130.6021 -7402.8516 301.8086 95.5117 143.3925 30396.3235 6.3510 57.9038
ENERGY: 600000 2.8157 8.3184 5.5625 0.0000 -10495.0095 1345.4144 0.0000 0.0000 1741.7720 -7391.1265 296.9172 -9132.8985 -7396.7165 299.4788 -665.6463 -580.5513 30461.4641 -154.5157 -105.3609
ENERGY: 900000 3.7971 11.1106 6.3638 0.0000 -10659.2408 1480.8766 0.0000 0.0000 1754.2749 -7402.8177 299.0485 -9157.0926 -7402.2787 299.7957 381.0518 437.1467 30473.3195 -64.9416 -2.7456
ENERGY: 1200000 2.6166 10.8891 2.9751 0.0000 -10581.8304 1425.8501 0.0000 0.0000 1718.9729 -7420.5267 293.0307 -9139.4995 -7396.6237 300.4902 46.4480 137.7539 30274.1175 -64.5707 -0.5402
ENERGY: 1500000 5.5324 15.9627 7.2653 0.0000 -10765.5620 1523.6818 0.0000 0.0000 1735.2901 -7477.8296 295.8122 -9213.1198 -7405.4741 300.3218 911.1365 1016.1767 29668.0766 -2.7758 65.0427
TCL: Running FEP window  11: Lambda1 0.49999999999999994 Lambda2 0.5499999999999999 [dLambda 0.04999999999999999]
TCL: Setting parameter firsttimestep to 0
TCL: Setting parameter alchLambda to 0.49999999999999994
Info: NONBONDED TABLE R-SQUARED SPACING: 0.0625
Info: NONBONDED TABLE SIZE: 705 POINTS
TCL: Setting parameter alchLambda2 to 0.5499999999999999
Info: NONBONDED TABLE R-SQUARED SPACING: 0.0625
Info: NONBONDED TABLE SIZE: 705 POINTS
TCL: Running for 1500000 steps
ETITLE: TS BOND ANGLE DIHED IMPRP ELECT VDW BOUNDARY MISC KINETIC TOTAL TEMP POTENTIAL TOTALAVG TEMPAVG PRESSURE GPRESSURE VOLUME PRESSAVG GPRESSAVG
ENERGY: 0 5.5323 15.9627 7.2653 0.0000 -10765.5626 1523.9695 0.0000 0.0000 1734.4396 -7478.3931 295.6672 -9212.8327 -7478.3931 295.6672 960.3384 1031.7150 29668.0766 960.3384 1031.7150
ENERGY: 300000 3.7644 13.7983 7.9642 0.0000 -10591.3699 1359.0614 0.0000 0.0000 1716.8855 -7489.8961 292.6748 -9206.7816 -7444.0350 293.9663 -745.3940 -677.1946 30193.1219 -21.5000 39.1804
ENERGY: 600000 3.1965 12.4795 6.9828 0.0000 -10601.0077 1437.6831 0.0000 0.0000 1744.9909 -7395.6747 297.4659 -9140.6657 -7419.4799 296.0344 83.9922 171.3600 29971.4873 28.2098 82.9390
ENERGY: 900000 2.4058 15.3336 4.7495 0.0000 -10549.5268 1401.5302 0.0000 0.0000 1741.8212 -7383.6864 296.9256 -9125.5076 -7423.9545 294.9223 -1.3352 49.8201 30061.2996 63.9703 118.2468
ENERGY: 1200000 2.9427 16.1467 5.7317 0.0000 -10448.8766 1352.1097 0.0000 0.0000 1742.2957 -7329.6502 297.0065 -9071.9458 -7413.3932 295.0740 -193.2079 -189.5665 30330.3995 -13.6513 33.7159
ENERGY: 1500000 7.0323 16.8103 4.9393 0.0000 -10671.7648 1421.3284 0.0000 0.0000 1739.9551 -7481.6995 296.6075 -9221.6546 -7414.8690 295.2269 -368.1217 -296.2905 29889.6425 25.8270 68.1682
TCL: Running FEP window  12: Lambda1 0.5499999999999999 Lambda2 0.6    [dLambda 0.050000000000000044]
TCL: Setting parameter firsttimestep to 0
TCL: Setting parameter alchLambda to 0.5499999999999999
Info: NONBONDED TABLE R-SQUARED SPACING: 0.0625
Info: NONBONDED TABLE SIZE: 705 POINTS
TCL: Setting parameter alchLambda2 to 0.6
Info: NONBONDED TABLE R-SQUARED SPACING: 0.0625
Info: NONBONDED TABLE SIZE: 705 POINTS
TCL: Running for 1500000 steps
ETITLE: TS BOND ANGLE DIHED IMPRP ELECT VDW BOUNDARY MISC KINETIC TOTAL TEMP POTENTIAL TOTALAVG TEMPAVG PRESSURE GPRESSURE VOLUME PRESSAVG GPRESSAVG
ENERGY: 0 7.0323 16.8103 4.9393 0.0000 -10672.1207 1421.8989 0.0000 0.0000 1739.0825 -7482.3574 296.4587 -9221.4400 -7482.3574 296.4587 -369.8782 -282.9890 29889.6425 -369.8782 -282.9890
ENERGY: 300000 2.6411 11.0749 5.6634 0.0000 -10549.1983 1372.9074 0.0000 0.0000 1763.5925 -7393.3190 300.6369 -9156.9115 -7421.0578 294.5824 -232.6891 -93.5809 29991.2117 -409.8112 -319.9731
ENERGY: 600000 1.7954 11.7483 7.6130 0.0000 -10610.8340 1420.7334 0.0000 0.0000 1735.9451 -7432.9988 295.9239 -9168.9439 -7438.7670 295.0392 356.5054 390.3619 29475.0359 -230.6402 -157.2440
ENERGY: 900000 4.8211 12.5617 4.0806 0.0000 -10577.5590 1426.3854 0.0000 0.0000 1729.3231 -7400.3871 294.7950 -9129.7102 -7434.5558 294.9952 83.7134 175.7275 29949.9262 -250.9263 -181.9955
ENERGY: 1200000 3.7784 8.4755 9.4481 0.0000 -10510.4696 1366.6172 0.0000 0.0000 1767.6451 -7354.5054 301.3277 -9122.1504 -7435.6507 295.2847 -584.9251 -457.9264 30531.5054 -246.6868 -184.6410
ENERGY: 1500000 4.6484 10.5887 4.8180 0.0000 -10681.1477 1472.5126 0.0000 0.0000 1715.3771 -7473.2028 292.4177 -9188.5800 -7434.8892 296.1182 194.4116 281.7186 30025.3123 -239.5610 -178.8735
TCL: Running FEP window  13: Lambda1 0.6    Lambda2 0.65   [dLambda 0.050000000000000044]
TCL: Setting parameter firsttimestep to 0
TCL: Setting parameter alchLambda to 0.6
Info: NONBONDED TABLE R-SQUARED SPACING: 0.0625
Info: NONBONDED TABLE SIZE: 705 POINTS
TCL: Setting parameter alchLambda2 to 0.65
Info: NONBONDED TABLE R-SQUARED SPACING: 0.0625
Info: NONBONDED TABLE SIZE: 705 POINTS
TCL: Running for 1500000 steps
ETITLE: TS BOND ANGLE DIHED IMPRP ELECT VDW BOUNDARY MISC KINETIC TOTAL TEMP POTENTIAL TOTALAVG TEMPAVG PRESSURE GPRESSURE VOLUME PRESSAVG GPRESSAVG
ENERGY: 0 4.6484 10.5887 4.8180 0.0000 -10681.3081 1472.5829 0.0000 0.0000 1714.5125 -7474.1576 292.2703 -9188.6700 -7474.1576 292.2703 204.0316 293.9219 30025.3123 204.0316 293.9219
ENERGY: 300000 2.0199 10.9401 7.4094 0.0000 -10470.5015 1350.8049 0.0000 0.0000 1805.9426 -7293.3845 307.8563 -9099.3271 -7374.8473 302.0286 -472.2989 -416.9314 30494.8194 -70.2093 -4.5315
ENERGY: 600000 2.8322 8.3438 3.3434 0.0000 -10686.0552 1469.7877 0.0000 0.0000 1749.4691 -7452.2791 298.2293 -9201.7482 -7390.5820 300.2074 785.1809 812.4603 29469.9938 59.0197 125.7312
ENERGY: 900000 3.5287 14.1418 6.1038 0.0000 -10688.0329 1497.0925 0.0000 0.0000 1798.7790 -7368.3872 306.6351 -9167.1661 -7394.8866 301.3433 822.9924 842.0689 29895.3384 92.5127 148.4891
ENERGY: 1200000 4.8505 15.3761 3.3655 0.0000 -10655.1610 1446.6664 0.0000 0.0000 1771.1625 -7413.7400 301.9273 -9184.9026 -7400.7639 301.5308 -210.3237 -127.0403 30380.4788 98.5488 156.1991
ENERGY: 1500000 2.9683 17.8256 5.9307 0.0000 -10587.9773 1399.9764 0.0000 0.0000 1772.2856 -7388.9907 302.1188 -9161.2763 -7396.2434 301.4139 1.6325 87.5355 29998.6905 129.4797 193.9209
TCL: Running FEP window  14: Lambda1 0.65   Lambda2 0.7000000000000001 [dLambda 0.050000000000000044]
TCL: Setting parameter firsttimestep to 0
TCL: Setting parameter alchLambda to 0.65
Info: NONBONDED TABLE R-SQUARED SPACING: 0.0625
Info: NONBONDED TABLE SIZE: 705 POINTS
TCL: Setting parameter alchLambda2 to 0.7000000000000001
Info: NONBONDED TABLE R-SQUARED SPACING: 0.0625
Info: NONBONDED TABLE SIZE: 705 POINTS
TCL: Running for 1500000 steps
ETITLE: TS BOND ANGLE DIHED IMPRP ELECT VDW BOUNDARY MISC KINETIC TOTAL TEMP POTENTIAL TOTALAVG TEMPAVG PRESSURE GPRESSURE VOLUME PRESSAVG GPRESSAVG
ENERGY: 0 2.9683 17.8256 5.9307 0.0000 -10588.2943 1400.4386 0.0000 0.0000 1771.3880 -7389.7430 301.9658 -9161.1310 -7389.7430 301.9658 9.7266 102.4843 29998.6905 9.7266 102.4843
ENERGY: 300000 1.0823 14.5014 10.2669 0.0000 -10839.1268 1563.6199 0.0000 0.0000 1800.8383 -7448.8179 306.9861 -9249.6563 -7382.0403 302.0130 1247.3916 1283.1243 29503.0633 152.3736 219.0530
ENERGY: 600000 3.4277 12.8557 3.0167 0.0000 -10537.6915 1403.1406 0.0000 0.0000 1738.2934 -7376.9574 296.3242 -9115.2508 -7367.5108 302.4003 -243.4016 -117.0416 30150.4542 234.3557 302.2224
ENERGY: 900000 5.8715 14.9260 3.9730 0.0000 -10642.5617 1446.5760 0.0000 0.0000 1727.3070 -7443.9082 294.4514 -9171.2151 -7374.4689 301.8367 -85.5809 -23.9727 30499.1916 135.9334 202.2862
ENERGY: 1200000 4.7291 10.0626 5.9968 0.0000 -10589.8496 1431.5807 0.0000 0.0000 1736.4079 -7401.0724 296.0028 -9137.4804 -7386.3899 300.5067 185.0045 295.1298 30047.0154 91.6253 161.9604
ENERGY: 1500000 4.8288 10.1707 5.1102 0.0000 -10573.7690 1353.8603 0.0000 0.0000 1796.6421 -7403.1570 306.2708 -9199.7990 -7388.9988 300.5752 -491.3651 -411.4475 30226.7574 -21.5118 46.6782
TCL: Running FEP window  15: Lambda1 0.7000000000000001 Lambda2 0.7500000000000001 [dLambda 0.050000000000000044]
TCL: Setting parameter firsttimestep to 0
TCL: Setting parameter alchLambda to 0.7000000000000001
Info: NONBONDED TABLE R-SQUARED SPACING: 0.0625
Info: NONBONDED TABLE SIZE: 705 POINTS
TCL: Setting parameter alchLambda2 to 0.7500000000000001
Info: NONBONDED TABLE R-SQUARED SPACING: 0.0625
Info: NONBONDED TABLE SIZE: 705 POINTS
TCL: Running for 1500000 steps
ETITLE: TS BOND ANGLE DIHED IMPRP ELECT VDW BOUNDARY MISC KINETIC TOTAL TEMP POTENTIAL TOTALAVG TEMPAVG PRESSURE GPRESSURE VOLUME PRESSAVG GPRESSAVG
ENERGY: 0 4.8288 10.1707 5.1102 0.0000 -10574.2896 1355.2485 0.0000 0.0000 1795.7648 -7403.1666 306.1213 -9198.9314 -7403.1666 306.1213 -461.4996 -380.6411 30226.7574 -461.4996 -380.6411
ENERGY: 300000 1.6480 10.5967 4.6298 0.0000 -10493.0091 1359.8285 0.0000 0.0000 1754.6747 -7361.6315 299.1167 -9116.3062 -7377.7923 303.9640 -299.9276 -276.1224 30206.2710 85.1582 131.3785
ENERGY: 600000 3.5996 7.0870 3.2421 0.0000 -10561.5928 1428.2424 0.0000 0.0000 1793.0330 -7326.3886 305.6556 -9119.4216 -7373.4711 303.0162 179.2465 233.5006 30166.3120 187.1781 242.2044
ENERGY: 900000 6.7581 12.2388 5.6397 0.0000 -10475.6950 1302.0420 0.0000 0.0000 1744.0451 -7404.9714 297.3047 -9149.0164 -7388.6718 301.4108 -1312.5935 -1208.9579 30574.2430 97.3522 158.3420
ENERGY: 1200000 3.0981 12.7177 7.9693 0.0000 -10647.5939 1432.6976 0.0000 0.0000 1778.9549 -7412.1563 303.2557 -9191.1112 -7395.6393 300.4617 69.4964 169.0179 30030.1889 87.0326 153.3534
ENERGY: 1500000 3.5959 11.2993 5.6930 0.0000 -10755.7225 1526.9429 0.0000 0.0000 1753.1149 -7455.0766 298.8508 -9208.1915 -7396.8783 300.6209 919.0367 1029.4961 29616.6783 193.7654 260.1029
TCL: Running FEP window  16: Lambda1 0.7500000000000001 Lambda2 0.8000000000000002 [dLambda 0.050000000000000044]
TCL: Setting parameter firsttimestep to 0
TCL: Setting parameter alchLambda to 0.7500000000000001
Info: NONBONDED TABLE R-SQUARED SPACING: 0.0625
Info: NONBONDED TABLE SIZE: 705 POINTS
TCL: Setting parameter alchLambda2 to 0.8000000000000002
Info: NONBONDED TABLE R-SQUARED SPACING: 0.0625
Info: NONBONDED TABLE SIZE: 705 POINTS
TCL: Running for 1500000 steps
ETITLE: TS BOND ANGLE DIHED IMPRP ELECT VDW BOUNDARY MISC KINETIC TOTAL TEMP POTENTIAL TOTALAVG TEMPAVG PRESSURE GPRESSURE VOLUME PRESSAVG GPRESSAVG
ENERGY: 0 3.5959 11.2993 5.6930 0.0000 -10755.9530 1526.5603 0.0000 0.0000 1752.2688 -7456.5358 298.7066 -9208.8046 -7456.5358 298.7066 959.0483 1039.8403 29616.6783 959.0483 1039.8403
ENERGY: 300000 3.1608 9.8029 7.1049 0.0000 -10739.4276 1457.3940 0.0000 0.0000 1767.3085 -7494.6565 301.2704 -9261.9649 -7448.3907 298.2083 -74.8801 -9.3985 29962.6011 29.6699 93.1036
ENERGY: 600000 5.4939 7.9703 5.4973 0.0000 -10663.1139 1476.4779 0.0000 0.0000 1789.8448 -7377.8296 305.1121 -9167.6745 -7429.5938 299.8683 481.8346 528.3971 30104.1292 145.1385 202.9434
ENERGY: 900000 5.5942 10.6146 5.5324 0.0000 -10507.7291 1369.2242 0.0000 0.0000 1760.8143 -7355.9494 300.1633 -9116.7637 -7416.0094 300.1174 -298.3015 -245.1489 30582.3355 -1.4082 53.9479
ENERGY: 1200000 3.4440 14.5704 2.8640 0.0000 -10579.3167 1422.5163 0.0000 0.0000 1735.1543 -7400.7676 295.7891 -9135.9219 -7412.1803 300.8107 136.4195 196.5064 30018.1141 -73.9385 -15.9036
ENERGY: 1500000 6.5149 8.7477 4.6662 0.0000 -10633.5839 1403.7699 0.0000 0.0000 1811.3925 -7398.4926 308.7853 -9209.8852 -7410.7054 301.1051 -276.2841 -240.4515 30091.7707 -152.4163 -94.0418
TCL: Running FEP window  17: Lambda1 0.8000000000000002 Lambda2 0.8500000000000002 [dLambda 0.050000000000000044]
TCL: Setting parameter firsttimestep to 0
TCL: Setting parameter alchLambda to 0.8000000000000002
Info: NONBONDED TABLE R-SQUARED SPACING: 0.0625
Info: NONBONDED TABLE SIZE: 705 POINTS
TCL: Setting parameter alchLambda2 to 0.8500000000000002
Info: NONBONDED TABLE R-SQUARED SPACING: 0.0625
Info: NONBONDED TABLE SIZE: 705 POINTS
TCL: Running for 1500000 steps
ETITLE: TS BOND ANGLE DIHED IMPRP ELECT VDW BOUNDARY MISC KINETIC TOTAL TEMP POTENTIAL TOTALAVG TEMPAVG PRESSURE GPRESSURE VOLUME PRESSAVG GPRESSAVG
ENERGY: 0 6.5149 8.7477 4.6662 0.0000 -10633.8423 1404.6862 0.0000 0.0000 1810.4727 -7398.7546 308.6285 -9209.2273 -7398.7546 308.6285 -300.6181 -213.2256 30091.7707 -300.6181 -213.2256
ENERGY: 300000 1.2394 15.2997 8.0310 0.0000 -10555.9185 1414.1823 0.0000 0.0000 1772.9719 -7344.1943 302.2358 -9117.1661 -7376.1290 302.7384 295.6539 379.6272 29942.9287 163.3891 216.2838
ENERGY: 600000 2.7293 13.8171 2.9430 0.0000 -10559.8123 1402.0677 0.0000 0.0000 1753.7757 -7384.4795 298.9634 -9138.2552 -7366.6331 303.7634 -448.8555 -348.6989 30575.8403 27.0307 90.2334
ENERGY: 900000 4.2859 12.0995 8.2715 0.0000 -10649.6126 1444.2393 0.0000 0.0000 1751.7244 -7428.9920 298.6138 -9180.7164 -7375.5612 302.3155 35.4353 87.5332 30231.2658 149.1577 205.3972
ENERGY: 1200000 4.4623 13.6720 5.4159 0.0000 -10644.6663 1533.7290 0.0000 0.0000 1766.8520 -7320.5351 301.1925 -9087.3871 -7376.7637 302.5713 1411.6048 1519.5400 29511.2275 183.9329 239.7113
ENERGY: 1500000 3.6761 8.6197 4.2383 0.0000 -10690.5073 1410.0967 0.0000 0.0000 1738.0922 -7525.7843 296.2899 -9263.8765 -7396.3026 300.8358 -181.4544 -152.6662 30065.7492 141.2378 191.2043
TCL: Running FEP window  18: Lambda1 0.8500000000000002 Lambda2 0.9000000000000002 [dLambda 0.050000000000000044]
TCL: Setting parameter firsttimestep to 0
TCL: Setting parameter alchLambda to 0.8500000000000002
Info: NONBONDED TABLE R-SQUARED SPACING: 0.0625
Info: NONBONDED TABLE SIZE: 705 POINTS
TCL: Setting parameter alchLambda2 to 0.9000000000000002
Info: NONBONDED TABLE R-SQUARED SPACING: 0.0625
Info: NONBONDED TABLE SIZE: 705 POINTS
TCL: Running for 1500000 steps
ETITLE: TS BOND ANGLE DIHED IMPRP ELECT VDW BOUNDARY MISC KINETIC TOTAL TEMP POTENTIAL TOTALAVG TEMPAVG PRESSURE GPRESSURE VOLUME PRESSAVG GPRESSAVG
ENERGY: 0 3.6761 8.6197 4.2383 0.0000 -10690.7615 1410.7542 0.0000 0.0000 1737.2030 -7526.2703 296.1383 -9263.4733 -7526.2703 296.1383 -223.4382 -129.8592 30065.7492 -223.4382 -129.8592
ENERGY: 300000 5.3250 13.9878 4.8476 0.0000 -10665.4213 1492.6550 0.0000 0.0000 1741.8082 -7406.7979 296.9234 -9148.6060 -7413.8261 298.0908 374.8324 457.4031 30592.7465 87.7481 202.1811
ENERGY: 600000 3.7417 15.4411 6.7975 0.0000 -10654.6560 1468.0923 0.0000 0.0000 1739.7009 -7420.8826 296.5641 -9160.5835 -7409.9598 299.7816 364.7852 410.6925 30333.1686 -115.8771 -25.2922
ENERGY: 900000 3.2988 10.3284 3.9481 0.0000 -10610.1660 1386.4877 0.0000 0.0000 1718.2889 -7487.8142 292.9141 -9206.1031 -7422.6847 297.9641 -470.2062 -366.1871 30358.1106 -171.0775 -74.7441
ENERGY: 1200000 4.5226 18.2503 7.0301 0.0000 -10628.1042 1394.9999 0.0000 0.0000 1710.6739 -7492.6274 291.6160 -9203.3013 -7422.3803 298.7308 -518.8715 -445.0184 30626.1073 -285.1141 -196.8775
ENERGY: 1500000 3.1645 9.0210 5.0071 0.0000 -10684.5759 1441.9761 0.0000 0.0000 1746.9505 -7478.4567 297.8000 -9225.4071 -7429.3351 298.3105 -52.1380 -103.2977 30443.2425 -329.3526 -254.0620
TCL: Running FEP window  19: Lambda1 0.9000000000000002 Lambda2 0.9500000000000003 [dLambda 0.050000000000000044]
TCL: Setting parameter firsttimestep to 0
TCL: Setting parameter alchLambda to 0.9000000000000002
Info: NONBONDED TABLE R-SQUARED SPACING: 0.0625
Info: NONBONDED TABLE SIZE: 705 POINTS
TCL: Setting parameter alchLambda2 to 0.9500000000000003
Info: NONBONDED TABLE R-SQUARED SPACING: 0.0625
Info: NONBONDED TABLE SIZE: 705 POINTS
TCL: Running for 1500000 steps
ETITLE: TS BOND ANGLE DIHED IMPRP ELECT VDW BOUNDARY MISC KINETIC TOTAL TEMP POTENTIAL TOTALAVG TEMPAVG PRESSURE GPRESSURE VOLUME PRESSAVG GPRESSAVG
ENERGY: 0 3.1645 9.0210 5.0071 0.0000 -10684.8073 1441.8379 0.0000 0.0000 1746.1086 -7479.6682 297.6564 -9225.7768 -7479.6682 297.6564 -162.2926 -87.1188 30443.2425 -162.2926 -87.1188
ENERGY: 300000 4.4489 12.5709 7.5741 0.0000 -10517.5203 1425.5550 0.0000 0.0000 1706.1167 -7361.2546 290.8391 -9067.3713 -7436.1417 295.2938 60.7225 50.1402 30673.8376 -49.2878 -2.0386
ENERGY: 600000 3.9070 13.6252 5.2262 0.0000 -10626.5990 1418.5775 0.0000 0.0000 1786.9882 -7398.2748 304.6251 -9185.2631 -7439.5791 298.4223 107.3712 188.8745 29908.4632 -64.1364 -7.4419
ENERGY: 900000 5.7466 11.6908 6.7443 0.0000 -10603.0492 1416.1174 0.0000 0.0000 1781.2823 -7381.4678 303.6524 -9162.7501 -7439.9722 297.5078 -256.6027 -125.2577 30518.9192 -64.2809 -0.9759
ENERGY: 1200000 4.0683 11.2861 5.3311 0.0000 -10536.5442 1353.8751 0.0000 0.0000 1728.2317 -7433.7518 294.6090 -9161.9836 -7426.4914 297.6389 -686.0215 -575.2595 30503.9320 -100.8390 -31.7227
ENERGY: 1500000 4.7024 9.0707 6.9476 0.0000 -10649.6838 1432.5920 0.0000 0.0000 1775.3293 -7421.0418 302.6377 -9196.3711 -7425.3068 298.3100 147.8927 188.4622 30417.1161 -105.4844 -37.0555
TCL: Running FEP window  20: Lambda1 0.9500000000000003 Lambda2 1.0    [dLambda 0.04999999999999971]
TCL: Setting parameter firsttimestep to 0
TCL: Setting parameter alchLambda to 0.9500000000000003
Info: NONBONDED TABLE R-SQUARED SPACING: 0.0625
Info: NONBONDED TABLE SIZE: 705 POINTS
TCL: Setting parameter alchLambda2 to 1.0
Info: NONBONDED TABLE R-SQUARED SPACING: 0.0625
Info: NONBONDED TABLE SIZE: 705 POINTS
TCL: Running for 1500000 steps
ETITLE: TS BOND ANGLE DIHED IMPRP ELECT VDW BOUNDARY MISC KINETIC TOTAL TEMP POTENTIAL TOTALAVG TEMPAVG PRESSURE GPRESSURE VOLUME PRESSAVG GPRESSAVG
ENERGY: 0 4.7024 9.0707 6.9476 0.0000 -10650.4709 1433.2523 0.0000 0.0000 1774.4631 -7422.0350 302.4900 -9196.4981 -7422.0350 302.4900 132.1397 212.7440 30417.1161 132.1397 212.7440
ENERGY: 300000 7.2853 6.5590 6.9275 0.0000 -10536.1678 1327.5109 0.0000 0.0000 1803.5281 -7384.3569 307.4447 -9187.8851 -7415.8865 301.4798 -1046.4185 -957.8279 30401.7374 -24.2768 64.3767
ENERGY: 600000 2.3496 13.0545 6.1647 0.0000 -10674.4062 1412.8662 0.0000 0.0000 1750.8194 -7489.1518 298.4595 -9239.9712 -7422.2073 300.1076 -293.4875 -192.7618 30018.8820 -7.7955 82.6006
ENERGY: 900000 4.7879 9.3883 4.4971 0.0000 -10623.1582 1407.9058 0.0000 0.0000 1753.2252 -7443.3540 298.8696 -9196.5792 -7411.6143 299.3931 -206.5133 -122.0000 30245.0220 -136.9007 -48.0278
ENERGY: 1200000 7.3397 10.0543 3.6134 0.0000 -10669.4141 1493.8757 0.0000 0.0000 1736.7738 -7417.7571 296.0652 -9154.5309 -7408.7128 299.9060 514.0993 591.2589 30142.6816 -98.8359 -9.3311
ENERGY: 1500000 2.0999 11.6471 9.1835 0.0000 -10760.7122 1485.6963 0.0000 0.0000 1793.1510 -7458.9344 305.6757 -9252.0855 -7412.7382 300.3430 494.9685 507.3705 30130.2398 -50.5708 29.3973
TCL: Exiting due to exit command.
