Info: SIMULATION PARAMETERS:
Info: TIMESTEP               2
Info: NUMBER OF STEPS        0
Info: STEPS PER CYCLE        10
Info: PERIODIC CELL BASIS 1  27.8754 0 0
Info: PERIODIC CELL BASIS 2  0 31.4553 0
Info: PERIODIC CELL BASIS 3  0 0 34.5253
Info: PERIODIC CELL CENTER   0 0 0
Info: WRAPPING WATERS AROUND PERIODIC BOUNDARIES ON OUTPUT.
Info: WRAPPING ALL CLUSTERS AROUND PERIODIC BOUNDARIES ON OUTPUT.
Info: FIRST LDB TIMESTEP     50
Info: LAST LDB TIMESTEP     -1
Info: HOM BACKGROUND SCALING 1
Info: PME BACKGROUND SCALING 1
Info: MIN ATOMS PER PATCH    40
Info: EMPTY PATCH LOAD       40 ATOMS
Info: VELOCITY FILE          mobley_3378420_equil.vel
Info: CENTER OF MASS MOVING INITIALLY? NO
Info: DIELECTRIC             1
Info: EXCLUDE                SCALED ONE-FOUR
Info: 1-4 ELECTROSTATICS SCALED BY 0.833333
Info: MODIFIED 1-4 VDW PARAMETERS WILL BE USED
Info: DCD FILENAME           mobley_3378420_prod.dcd
Info: DCD FREQUENCY          100000
Info: DCD FIRST STEP         100000
Info: DCD FILE WILL CONTAIN UNIT CELL DATA
Info: XST FILENAME           mobley_3378420_prod.xst
Info: XST FREQUENCY          100000
Info: NO VELOCITY DCD OUTPUT
Info: NO FORCE DCD OUTPUT
Info: OUTPUT FILENAME        mobley_3378420_prod
Info: BINARY OUTPUT FILES WILL BE USED
Info: RESTART FILENAME       mobley_3378420_prod.restart
Info: RESTART FREQUENCY      100000
Info: BINARY RESTART FILES WILL BE USED
Info: CUTOFF                 9
Info: PAIRLIST DISTANCE      11
Info: PAIRLIST SHRINK RATE   0.01
Info: PAIRLIST GROW RATE     0.01
Info: PAIRLIST TRIGGER       0.3
Info: PAIRLISTS PER CYCLE    2
Info: PAIRLISTS ENABLED
Info: MARGIN                 2
Info: HYDROGEN GROUP CUTOFF  2.5
Info: PATCH DIMENSION        15.5
Info: ENERGY OUTPUT STEPS    100000
Info: ENERGY EVALUATION STEPS    100000
Info: OUTPUT ENERGY PRECISION 4
Info: CROSSTERM ENERGY INCLUDED IN DIHEDRAL
Info: TIMING OUTPUT STEPS    1000000
Info: PRESSURE OUTPUT STEPS  100000
Info: ALCHEMICAL FEP ON
Info: FEP CURRENT LAMBDA VALUE     0
Info: FEP COMPARISON LAMBDA VALUE  0.05
Info: FEP INTRA-ALCHEMICAL NON-BONDED INTERACTIONS WILL BE RETAINED
Info: FEP INTRA-ALCHEMICAL BONDED INTERACTIONS WILL BE RETAINED
Info: FEP VDW SHIFTING COEFFICIENT 5
Info: FEP ELEC. ACTIVE FOR ANNIHILATED PARTICLES BETWEEN LAMBDA = 0 AND LAMBDA = 0.5
Info: FEP ELEC. ACTIVE FOR EXNIHILATED PARTICLES BETWEEN LAMBDA = 0.5 AND LAMBDA = 1
Info: FEP VDW ACTIVE FOR ANNIHILATED PARTICLES BETWEEN LAMBDA = 0 AND LAMBDA = 1
Info: FEP VDW ACTIVE FOR EXNIHILATED PARTICLES BETWEEN LAMBDA = 0 AND LAMBDA = 1
Info: FEP BOND ACTIVE FOR ANNIHILATED PARTICLES BETWEEN LAMBDA = 1 AND LAMBDA = 1
Info: FEP BOND ACTIVE FOR EXNIHILATED PARTICLES BETWEEN LAMBDA = 0 AND LAMBDA = 0
Info: LANGEVIN DYNAMICS ACTIVE
Info: LANGEVIN TEMPERATURE   300
Info: LANGEVIN USING BBK INTEGRATOR
Info: LANGEVIN DAMPING COEFFICIENT IS 1 INVERSE PS
Info: LANGEVIN DYNAMICS APPLIED TO HYDROGENS
Info: LANGEVIN PISTON PRESSURE CONTROL ACTIVE
Info:        TARGET PRESSURE IS 1.01325 BAR
Info:     OSCILLATION PERIOD IS 50 FS
Info:             DECAY TIME IS 25 FS
Info:     PISTON TEMPERATURE IS 300 K
Info:       PRESSURE CONTROL IS GROUP-BASED
Info:    INITIAL STRAIN RATE IS 8.19038e-05 8.19038e-05 8.19038e-05
Info:       CELL FLUCTUATION IS ISOTROPIC
Info: PARTICLE MESH EWALD (PME) ACTIVE
Info: PME TOLERANCE               1e-06
Info: PME EWALD COEFFICIENT       0.348832
Info: PME INTERPOLATION ORDER     4
Info: PME GRID DIMENSIONS         28 32 36
Info: PME MAXIMUM GRID SPACING    1
Info: PME CALCULATION WILL BE PERFORMED ON GPU
Info: FULL ELECTROSTATIC EVALUATION FREQUENCY      2
Info: USING VERLET I (r-RESPA) MTS SCHEME.
Info: C1 SPLITTING OF LONG RANGE ELECTROSTATICS
Info: PLACING ATOMS IN PATCHES BY HYDROGEN GROUPS
Info: RIGID BONDS TO HYDROGEN : ALL
Info:         ERROR TOLERANCE : 1e-08
Info:          MAX ITERATIONS : 100
Info: RIGID WATER USING SETTLE ALGORITHM
Info: RANDOM NUMBER SEED     1744082099
Info: USE HYDROGEN BONDS?    NO
Info: Using AMBER format force field!
Info: AMBER PARM FILE        mobley_3378420.prmtop
Info: COORDINATE PDB         mobley_3378420.pdb
Info: Exclusions will be read from PARM file!
Info: SCNB (VDW SCALING)     2
Info: USING ARITHMETIC MEAN TO COMBINE L-J SIGMA PARAMETERS
Info: BINARY COORDINATES     mobley_3378420_equil.coor
Info: SUMMARY OF PARAMETERS:
Info: 7 BONDS
Info: 8 ANGLES
Info:   8 HARMONIC
Info:   0 COSINE-BASED
Info: 9 DIHEDRAL
Info: 0 IMPROPER
Info: 0 CROSSTERM
Info: 0 VDW
Info: 21 VDW_PAIRS
Info: 0 NBTHOLE_PAIRS
Info: To read alchdata from file: mobley_3378420.pdb
Info: To read alchflag data from column: 5
Info: STRUCTURE SUMMARY:
Info: 2946 ATOMS
Info: 2945 BONDS
Info: 55 ANGLES
Info: 90 DIHEDRALS
Info: 0 IMPROPERS
Info: 0 CROSSTERMS
Info: 3075 EXCLUSIONS
Info: 2936 RIGID BONDS
Info: ALCH: 0 ATOMS TO DISAPPEAR IN FINAL STATE
Info: ALCH: 30 ATOMS TO APPEAR IN FINAL STATE
Info: 5902 DEGREES OF FREEDOM
Info: 982 HYDROGEN GROUPS
Info: 4 ATOMS IN LARGEST HYDROGEN GROUP
Info: 982 MIGRATION GROUPS
Info: 4 ATOMS IN LARGEST MIGRATION GROUP
Info: TOTAL MASS = 17655.8 amu
Info: TOTAL CHARGE = 9.99644e-05 e
Info: MASS DENSITY = 0.968485 g/cm^3
Info: ATOM DENSITY = 0.0973148 atoms/A^3
Info: ADDED 0 IMPLICIT EXCLUSIONS
Info: NONBONDED TABLE R-SQUARED SPACING: 0.0625
Info: NONBONDED TABLE SIZE: 705 POINTS
Info: REMOVING COM VELOCITY 0.190132 0.0630279 0.0913089
Info: Use 3D box decompostion in PME FFT.
Info: Updated CUDA force table with 4096 elements.
Info: Updated CUDA LJ table with 6 x 6 elements.
Info: Found 33 unique exclusion lists needing 136 bytes
TCL: Running for 1500000 steps
ETITLE: TS BOND ANGLE DIHED IMPRP ELECT VDW BOUNDARY MISC KINETIC TOTAL TEMP POTENTIAL TOTALAVG TEMPAVG PRESSURE GPRESSURE VOLUME PRESSAVG GPRESSAVG
ENERGY: 0 1.6892 15.3054 9.8449 0.0000 -10578.6204 1399.7504 0.0000 0.0000 1759.4140 -7392.6165 300.0262 -9152.0305 -7392.6165 300.0262 -241.2436 -159.3373 30272.8734 -241.2436 -159.3373
ENERGY: 300000 1.9043 13.5747 6.8527 0.0000 -10600.3577 1487.2257 0.0000 0.0000 1733.7125 -7357.0878 295.6434 -9090.8003 -7398.8747 298.1566 500.8779 522.0585 30399.6787 -38.1317 32.1463
ENERGY: 600000 4.7999 13.2770 4.8888 0.0000 -10725.5620 1490.6007 0.0000 0.0000 1780.2135 -7431.7819 303.5731 -9211.9955 -7393.7807 298.3833 418.4275 479.4727 29871.5532 -33.7250 41.7785
ENERGY: 900000 5.7396 15.4813 6.1083 0.0000 -10549.6205 1418.5013 0.0000 0.0000 1786.6173 -7317.1727 304.6651 -9103.7900 -7394.4248 299.4587 47.1319 81.1072 29969.8761 42.0845 108.0583
ENERGY: 1200000 4.2752 12.9929 6.6667 0.0000 -10622.4412 1453.5746 0.0000 0.0000 1736.3678 -7408.5640 296.0962 -9144.9318 -7406.6871 298.7974 129.4069 178.0150 30247.9282 42.4148 102.6577
ENERGY: 1500000 2.2373 13.9592 4.9360 0.0000 -10521.6585 1416.5075 0.0000 0.0000 1731.7056 -7352.3128 295.3012 -9084.0184 -7403.4533 298.6800 -31.3793 64.4835 30277.7294 21.6813 86.7868
TCL: Running FEP window   2: Lambda1 0.05   Lambda2 0.1    [dLambda 0.05  ]
TCL: Setting parameter firsttimestep to 0
TCL: Setting parameter alchLambda to 0.05
Info: NONBONDED TABLE R-SQUARED SPACING: 0.0625
Info: NONBONDED TABLE SIZE: 705 POINTS
TCL: Setting parameter alchLambda2 to 0.1
Info: NONBONDED TABLE R-SQUARED SPACING: 0.0625
Info: NONBONDED TABLE SIZE: 705 POINTS
TCL: Running for 1500000 steps
ETITLE: TS BOND ANGLE DIHED IMPRP ELECT VDW BOUNDARY MISC KINETIC TOTAL TEMP POTENTIAL TOTALAVG TEMPAVG PRESSURE GPRESSURE VOLUME PRESSAVG GPRESSAVG
ENERGY: 0 2.2373 13.9592 4.9360 0.0000 -10521.6585 1421.6471 0.0000 0.0000 1730.8161 -7348.0627 295.1495 -9078.8788 -7348.0627 295.1495 4.4077 71.5355 30277.7294 4.4077 71.5355
ENERGY: 300000 3.0335 10.3793 5.4867 0.0000 -10610.8576 1399.9352 0.0000 0.0000 1733.3244 -7458.6985 295.5773 -9192.0229 -7424.0989 294.5226 -250.9020 -178.9509 29785.8755 -229.5256 -168.1522
ENERGY: 600000 1.5573 12.7234 6.6414 0.0000 -10724.6533 1496.3182 0.0000 0.0000 1754.0971 -7453.3160 299.1196 -9207.4131 -7429.3207 298.9448 338.3624 442.7960 29933.0923 -74.3539 -5.0868
ENERGY: 900000 4.0681 13.9729 5.5326 0.0000 -10580.8244 1400.2300 0.0000 0.0000 1766.8827 -7390.1380 301.2998 -9157.0208 -7413.5704 299.1621 -230.5852 -169.2949 30162.5752 -177.8575 -116.9551
ENERGY: 1200000 2.9232 9.4678 6.6396 0.0000 -10769.2253 1539.6268 0.0000 0.0000 1744.9703 -7465.5975 297.5632 -9210.5679 -7411.0040 300.0233 1090.7846 1174.9799 29347.2466 -175.1842 -107.7633
ENERGY: 1500000 2.5852 16.6529 6.4666 0.0000 -10750.9533 1570.5098 0.0000 0.0000 1766.6273 -7388.1115 301.2563 -9154.7388 -7409.6081 298.9511 1096.8977 1202.3817 29764.1557 -25.6673 42.2822
TCL: Running FEP window   3: Lambda1 0.1    Lambda2 0.15000000000000002 [dLambda 0.05000000000000002]
TCL: Setting parameter firsttimestep to 0
TCL: Setting parameter alchLambda to 0.1
Info: NONBONDED TABLE R-SQUARED SPACING: 0.0625
Info: NONBONDED TABLE SIZE: 705 POINTS
TCL: Setting parameter alchLambda2 to 0.15000000000000002
Info: NONBONDED TABLE R-SQUARED SPACING: 0.0625
Info: NONBONDED TABLE SIZE: 705 POINTS
TCL: Running for 1500000 steps
ETITLE: TS BOND ANGLE DIHED IMPRP ELECT VDW BOUNDARY MISC KINETIC TOTAL TEMP POTENTIAL TOTALAVG TEMPAVG PRESSURE GPRESSURE VOLUME PRESSAVG GPRESSAVG
ENERGY: 0 2.5852 16.6529 6.4666 0.0000 -10750.9539 1577.0265 0.0000 0.0000 1765.7478 -7382.4749 301.1063 -9148.2227 -7382.4749 301.1063 1139.3180 1223.2015 29764.1557 1139.3180 1223.2015
ENERGY: 300000 2.5737 16.5978 5.7858 0.0000 -10386.8599 1269.6576 0.0000 0.0000 1801.8930 -7290.3520 307.2700 -9092.2450 -7370.4668 300.6565 -1131.6280 -1036.7440 30239.6927 -432.2444 -345.6722
ENERGY: 600000 2.6320 15.9853 6.8252 0.0000 -10536.9595 1334.5580 0.0000 0.0000 1747.7305 -7429.2284 298.0339 -9176.9590 -7384.2720 300.1060 -880.0674 -751.2438 30120.0130 -407.7411 -313.9862
ENERGY: 900000 4.4631 16.9654 5.4594 0.0000 -10684.3260 1433.4266 0.0000 0.0000 1769.0055 -7455.0061 301.6618 -9224.0116 -7388.5050 300.7204 -162.9652 -167.7827 30191.6018 -256.5514 -172.8748
ENERGY: 1200000 1.1919 18.4579 6.9736 0.0000 -10579.7809 1378.5016 0.0000 0.0000 1719.5183 -7455.1376 293.2230 -9174.6559 -7401.4698 300.3012 -627.1413 -550.0873 30530.8377 -185.5524 -106.7234
ENERGY: 1500000 1.4222 18.9605 5.9908 0.0000 -10605.1857 1457.4457 0.0000 0.0000 1809.5172 -7311.8492 308.5701 -9121.3664 -7400.9573 299.7534 219.9256 267.8624 30283.2400 -172.2247 -95.5178
TCL: Running FEP window   4: Lambda1 0.15000000000000002 Lambda2 0.2    [dLambda 0.04999999999999999]
TCL: Setting parameter firsttimestep to 0
TCL: Setting parameter alchLambda to 0.15000000000000002
Info: NONBONDED TABLE R-SQUARED SPACING: 0.0625
Info: NONBONDED TABLE SIZE: 705 POINTS
TCL: Setting parameter alchLambda2 to 0.2
Info: NONBONDED TABLE R-SQUARED SPACING: 0.0625
Info: NONBONDED TABLE SIZE: 705 POINTS
TCL: Running for 1500000 steps
ETITLE: TS BOND ANGLE DIHED IMPRP ELECT VDW BOUNDARY MISC KINETIC TOTAL TEMP POTENTIAL TOTALAVG TEMPAVG PRESSURE GPRESSURE VOLUME PRESSAVG GPRESSAVG
ENERGY: 0 1.4222 18.9605 5.9908 0.0000 -10605.1859 1459.7675 0.0000 0.0000 1808.6674 -7310.3774 308.4252 -9119.0448 -7310.3774 308.4252 209.7759 279.1972 30283.2400 209.7759 279.1972
ENERGY: 300000 0.8292 8.9371 6.3409 0.0000 -10636.6427 1439.3256 0.0000 0.0000 1770.5673 -7410.6427 301.9282 -9181.2100 -7384.4031 303.7280 175.8298 279.7970 29661.9661 -23.6715 53.6343
ENERGY: 600000 0.6327 14.8101 5.8282 0.0000 -10595.5995 1369.9314 0.0000 0.0000 1734.4704 -7469.9267 295.7727 -9204.3971 -7405.6167 300.6830 -407.9313 -323.9109 29716.1886 -209.9419 -123.8186
ENERGY: 900000 2.3541 8.7807 5.7855 0.0000 -10662.1394 1482.9667 0.0000 0.0000 1805.8807 -7356.3718 307.9500 -9162.2524 -7411.1633 299.8402 346.4980 434.3583 30047.8895 -54.5031 19.8003
ENERGY: 1200000 1.3722 14.0484 7.7240 0.0000 -10717.2183 1463.7449 0.0000 0.0000 1678.2189 -7552.1098 286.1803 -9230.3288 -7415.8797 299.0988 250.8308 285.7943 29754.8414 2.1205 67.5339
ENERGY: 1500000 3.5112 16.8976 5.4228 0.0000 -10826.6401 1643.8119 0.0000 0.0000 1757.8719 -7399.1245 299.7633 -9156.9965 -7408.1206 299.2435 1828.5830 1877.0825 29811.3638 110.6053 173.8970
TCL: Running FEP window   5: Lambda1 0.2    Lambda2 0.25   [dLambda 0.04999999999999999]
TCL: Setting parameter firsttimestep to 0
TCL: Setting parameter alchLambda to 0.2
Info: NONBONDED TABLE R-SQUARED SPACING: 0.0625
Info: NONBONDED TABLE SIZE: 705 POINTS
TCL: Setting parameter alchLambda2 to 0.25
Info: NONBONDED TABLE R-SQUARED SPACING: 0.0625
Info: NONBONDED TABLE SIZE: 705 POINTS
TCL: Running for 1500000 steps
ETITLE: TS BOND ANGLE DIHED IMPRP ELECT VDW BOUNDARY MISC KINETIC TOTAL TEMP POTENTIAL TOTALAVG TEMPAVG PRESSURE GPRESSURE VOLUME PRESSAVG GPRESSAVG
ENERGY: 0 3.5112 16.8976 5.4228 0.0000 -10826.6398 1645.1302 0.0000 0.0000 1757.0045 -7398.6734 299.6154 -9155.6779 -7398.6734 299.6154 1795.8629 1886.5956 29811.3638 1795.8629 1886.5956
ENERGY: 300000 7.6366 12.8393 5.8436 0.0000 -10603.7493 1406.0066 0.0000 0.0000 1717.9573 -7453.4659 292.9568 -9171.4232 -7417.3020 297.4305 -401.7577 -394.4958 30089.3485 247.1400 303.7013
ENERGY: 600000 4.5624 15.9087 7.7579 0.0000 -10721.0906 1433.3686 0.0000 0.0000 1793.3955 -7466.0975 305.8210 -9259.4930 -7424.9029 297.5557 18.8357 116.6423 29642.7598 176.6373 253.3537
ENERGY: 900000 1.8935 12.2134 5.5069 0.0000 -10848.2588 1544.7916 0.0000 0.0000 1774.1729 -7509.6804 302.5430 -9283.8533 -7424.0059 298.5659 664.3869 717.9663 29949.7932 148.2177 224.5482
ENERGY: 1200000 5.4248 14.4534 7.5836 0.0000 -10611.1294 1415.3618 0.0000 0.0000 1767.6430 -7400.6628 301.4295 -9168.3057 -7410.1222 299.0796 -246.5503 -153.1497 30290.8532 4.5107 85.1914
ENERGY: 1500000 2.1112 16.1971 7.1828 0.0000 -10596.0153 1372.8058 0.0000 0.0000 1774.1991 -7423.5194 302.5475 -9197.7185 -7413.6883 299.7953 -868.6437 -831.2026 30749.1298 -53.2186 20.7918
TCL: Running FEP window   6: Lambda1 0.25   Lambda2 0.3    [dLambda 0.04999999999999999]
TCL: Setting parameter firsttimestep to 0
TCL: Setting parameter alchLambda to 0.25
Info: NONBONDED TABLE R-SQUARED SPACING: 0.0625
Info: NONBONDED TABLE SIZE: 705 POINTS
TCL: Setting parameter alchLambda2 to 0.3
Info: NONBONDED TABLE R-SQUARED SPACING: 0.0625
Info: NONBONDED TABLE SIZE: 705 POINTS
TCL: Running for 1500000 steps
ETITLE: TS BOND ANGLE DIHED IMPRP ELECT VDW BOUNDARY MISC KINETIC TOTAL TEMP POTENTIAL TOTALAVG TEMPAVG PRESSURE GPRESSURE VOLUME PRESSAVG GPRESSAVG
ENERGY: 0 2.1112 16.1971 7.1828 0.0000 -10596.0156 1373.5113 0.0000 0.0000 1773.3817 -7423.6316 302.4081 -9197.0133 -7423.6316 302.4081 -921.2530 -822.3782 30749.1298 -921.2530 -822.3782
ENERGY: 300000 1.1852 9.7552 8.6748 0.0000 -10676.1538 1455.8295 0.0000 0.0000 1775.6855 -7425.0236 302.8010 -9200.7092 -7466.2608 297.1985 32.8523 119.8023 30214.9766 -286.4065 -225.6544
ENERGY: 600000 1.4739 16.1051 4.8188 0.0000 -10669.9443 1490.3252 0.0000 0.0000 1794.4331 -7362.7881 305.9979 -9157.2213 -7410.3799 301.8743 460.9074 551.8485 30008.3403 -188.6503 -124.2217
ENERGY: 900000 2.7566 9.4242 6.5139 0.0000 -10565.3521 1394.9046 0.0000 0.0000 1761.7189 -7390.0340 300.4193 -9151.7529 -7400.6162 301.5931 -349.3643 -263.6012 30351.2843 -129.1380 -65.6793
ENERGY: 1200000 4.3024 13.5023 5.7395 0.0000 -10711.3275 1480.2312 0.0000 0.0000 1757.1508 -7450.4013 299.6403 -9207.5521 -7405.3080 300.9967 300.1266 336.3392 29923.3821 -35.7050 21.2861
ENERGY: 1500000 1.8986 12.5636 7.3235 0.0000 -10709.9210 1488.8617 0.0000 0.0000 1708.4048 -7490.8689 291.3278 -9199.2737 -7408.7013 300.5953 491.4326 618.4852 29648.9314 -23.7573 33.7834
TCL: Running FEP window   7: Lambda1 0.3    Lambda2 0.35   [dLambda 0.04999999999999999]
TCL: Setting parameter firsttimestep to 0
TCL: Setting parameter alchLambda to 0.3
Info: NONBONDED TABLE R-SQUARED SPACING: 0.0625
Info: NONBONDED TABLE SIZE: 705 POINTS
TCL: Setting parameter alchLambda2 to 0.35
Info: NONBONDED TABLE R-SQUARED SPACING: 0.0625
Info: NONBONDED TABLE SIZE: 705 POINTS
TCL: Running for 1500000 steps
ETITLE: TS BOND ANGLE DIHED IMPRP ELECT VDW BOUNDARY MISC KINETIC TOTAL TEMP POTENTIAL TOTALAVG TEMPAVG PRESSURE GPRESSURE VOLUME PRESSAVG GPRESSAVG
ENERGY: 0 1.8986 12.5636 7.3235 0.0000 -10709.9219 1489.1968 0.0000 0.0000 1707.4969 -7491.4424 291.1730 -9198.9394 -7491.4424 291.1730 538.4763 626.6878 29648.9314 538.4763 626.6878
ENERGY: 300000 4.0018 14.1811 6.1070 0.0000 -10575.2546 1451.1008 0.0000 0.0000 1785.9919 -7313.8721 304.5584 -9099.8639 -7413.1369 298.3627 161.9955 218.2763 30382.0496 126.9662 165.4343
ENERGY: 600000 2.0525 14.0830 7.6597 0.0000 -10699.8708 1506.2837 0.0000 0.0000 1773.1013 -7396.6906 302.3603 -9169.7920 -7404.2139 299.6731 406.5399 417.9492 30370.0562 -125.4450 -86.5964
ENERGY: 900000 1.7399 14.6077 8.4855 0.0000 -10620.3016 1388.5744 0.0000 0.0000 1752.7864 -7454.1076 298.8961 -9206.8941 -7411.4346 298.9528 -560.9602 -474.9216 30507.3684 -188.5286 -132.1158
ENERGY: 1200000 1.5251 14.1272 7.6715 0.0000 -10569.8005 1435.3771 0.0000 0.0000 1744.5318 -7366.5679 297.4884 -9111.0997 -7399.9943 299.7647 437.9790 465.7452 29863.4857 -141.1278 -87.4356
ENERGY: 1500000 3.6238 13.3844 6.5298 0.0000 -10647.5495 1476.9691 0.0000 0.0000 1729.9190 -7417.1233 294.9966 -9147.0423 -7407.0124 298.8595 110.5441 215.3227 30388.5687 -10.5123 47.9158
TCL: Running FEP window   8: Lambda1 0.35   Lambda2 0.39999999999999997 [dLambda 0.04999999999999999]
TCL: Setting parameter firsttimestep to 0
TCL: Setting parameter alchLambda to 0.35
Info: NONBONDED TABLE R-SQUARED SPACING: 0.0625
Info: NONBONDED TABLE SIZE: 705 POINTS
TCL: Setting parameter alchLambda2 to 0.39999999999999997
Info: NONBONDED TABLE R-SQUARED SPACING: 0.0625
Info: NONBONDED TABLE SIZE: 705 POINTS
TCL: Running for 1500000 steps
ETITLE: TS BOND ANGLE DIHED IMPRP ELECT VDW BOUNDARY MISC KINETIC TOTAL TEMP POTENTIAL TOTALAVG TEMPAVG PRESSURE GPRESSURE VOLUME PRESSAVG GPRESSAVG
ENERGY: 0 3.6238 13.3844 6.5298 0.0000 -10647.5490 1477.0124 0.0000 0.0000 1729.0360 -7417.9625 294.8460 -9146.9986 -7417.9625 294.8460 136.3578 221.0418 30388.5687 136.3578 221.0418
ENERGY: 300000 1.2932 14.3968 7.1626 0.0000 -10599.5561 1417.6715 0.0000 0.0000 1747.2982 -7411.7337 297.9602 -9159.0319 -7385.5526 299.4714 -28.8752 56.4587 30273.1961 73.8693 119.0312
ENERGY: 600000 3.3626 9.7384 6.1619 0.0000 -10610.9100 1373.2332 0.0000 0.0000 1748.8383 -7469.5756 298.2228 -9218.4139 -7412.4697 299.0241 -471.7420 -399.1297 29877.7068 -130.9969 -79.7021
ENERGY: 900000 3.1489 10.1634 5.8575 0.0000 -10617.0509 1432.4535 0.0000 0.0000 1815.8597 -7349.5678 309.6517 -9165.4275 -7404.7926 301.3139 166.6567 202.3122 29981.2302 -72.5790 -11.8169
ENERGY: 1200000 4.0249 11.3821 9.2054 0.0000 -10574.0489 1388.1443 0.0000 0.0000 1807.0595 -7354.2327 308.1510 -9161.2922 -7397.4286 302.0405 -414.8837 -344.1588 30122.3545 -56.9979 3.2566
ENERGY: 1500000 3.1464 22.1726 4.7086 0.0000 -10656.6826 1454.6731 0.0000 0.0000 1816.9348 -7355.0470 309.8350 -9171.9819 -7396.0961 302.2736 274.9333 320.5177 30351.2876 -58.2581 3.8920
TCL: Running FEP window   9: Lambda1 0.39999999999999997 Lambda2 0.44999999999999996 [dLambda 0.04999999999999999]
TCL: Setting parameter firsttimestep to 0
TCL: Setting parameter alchLambda to 0.39999999999999997
Info: NONBONDED TABLE R-SQUARED SPACING: 0.0625
Info: NONBONDED TABLE SIZE: 705 POINTS
TCL: Setting parameter alchLambda2 to 0.44999999999999996
Info: NONBONDED TABLE R-SQUARED SPACING: 0.0625
Info: NONBONDED TABLE SIZE: 705 POINTS
TCL: Running for 1500000 steps
ETITLE: TS BOND ANGLE DIHED IMPRP ELECT VDW BOUNDARY MISC KINETIC TOTAL TEMP POTENTIAL TOTALAVG TEMPAVG PRESSURE GPRESSURE VOLUME PRESSAVG GPRESSAVG
ENERGY: 0 3.1464 22.1726 4.7086 0.0000 -10656.6834 1454.6879 0.0000 0.0000 1816.0839 -7355.8840 309.6899 -9171.9679 -7355.8840 309.6899 248.2362 325.9519 30351.2876 248.2362 325.9519
ENERGY: 300000 2.5758 13.8803 6.0860 0.0000 -10610.9096 1414.0447 0.0000 0.0000 1745.4110 -7428.9119 297.6383 -9174.3229 -7429.6864 298.7668 -295.5754 -283.9257 30605.0304 31.9831 104.0832
ENERGY: 600000 4.5174 16.4742 5.4415 0.0000 -10541.9832 1439.5816 0.0000 0.0000 1781.1680 -7294.8005 303.7359 -9075.9686 -7397.6292 298.8371 206.8702 253.8064 30347.6736 42.6814 105.8273
ENERGY: 900000 5.7697 18.1730 8.5450 0.0000 -10413.5796 1283.0110 0.0000 0.0000 1794.1380 -7303.9429 305.9476 -9098.0810 -7385.9146 300.9278 -708.8265 -666.4745 30169.2015 -24.8007 47.1593
ENERGY: 1200000 0.6266 11.5097 5.8598 0.0000 -10530.2545 1404.8861 0.0000 0.0000 1795.0048 -7312.3675 306.0954 -9107.3723 -7377.0258 302.1672 -56.7145 11.5144 30469.0210 -2.6934 65.1053
ENERGY: 1500000 2.4841 13.2408 5.1350 0.0000 -10599.9634 1400.2613 0.0000 0.0000 1746.8208 -7432.0213 297.8788 -9178.8422 -7380.8936 301.7206 -268.7646 -173.1081 30139.5731 66.3232 137.5091
TCL: Running FEP window  10: Lambda1 0.44999999999999996 Lambda2 0.49999999999999994 [dLambda 0.04999999999999999]
TCL: Setting parameter firsttimestep to 0
TCL: Setting parameter alchLambda to 0.44999999999999996
Info: NONBONDED TABLE R-SQUARED SPACING: 0.0625
Info: NONBONDED TABLE SIZE: 705 POINTS
TCL: Setting parameter alchLambda2 to 0.49999999999999994
Info: NONBONDED TABLE R-SQUARED SPACING: 0.0625
Info: NONBONDED TABLE SIZE: 705 POINTS
TCL: Running for 1500000 steps
ETITLE: TS BOND ANGLE DIHED IMPRP ELECT VDW BOUNDARY MISC KINETIC TOTAL TEMP POTENTIAL TOTALAVG TEMPAVG PRESSURE GPRESSURE VOLUME PRESSAVG GPRESSAVG
ENERGY: 0 2.4841 13.2408 5.1350 0.0000 -10599.9619 1402.0153 0.0000 0.0000 1745.9438 -7431.1429 297.7292 -9177.0867 -7431.1429 297.7292 -230.0246 -153.6651 30139.5731 -230.0246 -153.6651
ENERGY: 300000 3.9031 13.9706 7.4650 0.0000 -10485.9003 1317.8956 0.0000 0.0000 1695.7179 -7446.9481 289.1644 -9142.6660 -7432.1590 296.1047 -831.5122 -773.2945 29927.3472 -190.8026 -119.0117
ENERGY: 600000 4.7548 13.5559 5.1094 0.0000 -10727.6189 1521.0392 0.0000 0.0000 1778.9702 -7404.1893 303.3611 -9183.1595 -7441.1320 295.2150 833.0732 858.3072 29966.6520 106.1507 159.5188
ENERGY: 900000 4.4539 12.7559 8.0264 0.0000 -10447.0073 1393.9863 0.0000 0.0000 1773.0059 -7254.7789 302.3440 -9027.7848 -7432.9828 296.0596 150.3194 189.2752 30325.1361 186.4548 249.9410
ENERGY: 1200000 1.7750 17.2358 7.2821 0.0000 -10586.4937 1424.6682 0.0000 0.0000 1829.8420 -7305.6906 312.0360 -9135.5326 -7415.1104 298.2763 -74.6976 -68.1787 30658.0224 170.4084 238.7114
ENERGY: 1500000 2.2723 9.0241 7.7643 0.0000 -10556.3125 1363.7324 0.0000 0.0000 1776.5995 -7396.9198 302.9568 -9173.5194 -7411.7835 297.9877 -614.3739 -550.9811 30222.6701 78.2095 144.0763
TCL: Running FEP window  11: Lambda1 0.49999999999999994 Lambda2 0.5499999999999999 [dLambda 0.04999999999999999]
TCL: Setting parameter firsttimestep to 0
TCL: Setting parameter alchLambda to 0.49999999999999994
Info: NONBONDED TABLE R-SQUARED SPACING: 0.0625
Info: NONBONDED TABLE SIZE: 705 POINTS
TCL: Setting parameter alchLambda2 to 0.5499999999999999
Info: NONBONDED TABLE R-SQUARED SPACING: 0.0625
Info: NONBONDED TABLE SIZE: 705 POINTS
TCL: Running for 1500000 steps
ETITLE: TS BOND ANGLE DIHED IMPRP ELECT VDW BOUNDARY MISC KINETIC TOTAL TEMP POTENTIAL TOTALAVG TEMPAVG PRESSURE GPRESSURE VOLUME PRESSAVG GPRESSAVG
ENERGY: 0 2.2723 9.0241 7.7643 0.0000 -10556.3121 1364.7427 0.0000 0.0000 1775.7020 -7396.8067 302.8038 -9172.5086 -7396.8067 302.8038 -615.9912 -530.4948 30222.6701 -615.9912 -530.4948
ENERGY: 300000 3.2026 19.8042 7.9154 0.0000 -10583.5527 1454.1829 0.0000 0.0000 1728.9469 -7369.5005 294.8308 -9098.4475 -7428.8331 299.8133 354.5357 402.2067 30376.8727 51.8247 115.9711
ENERGY: 600000 3.3442 16.8223 6.6816 0.0000 -10656.2957 1462.0827 0.0000 0.0000 1702.6508 -7464.7142 290.3466 -9167.3650 -7432.2283 298.0743 248.3064 322.8328 30400.9988 56.4448 115.9784
ENERGY: 900000 2.5233 17.3632 5.2798 0.0000 -10572.2251 1402.8398 0.0000 0.0000 1801.4384 -7342.7807 307.1925 -9144.2190 -7409.7854 300.3506 -379.8030 -324.0398 30548.5021 -74.1679 -14.5399
ENERGY: 1200000 3.1208 12.4615 6.0916 0.0000 -10483.7322 1364.2284 0.0000 0.0000 1750.2796 -7347.5504 298.4686 -9097.8300 -7402.9616 300.8310 -318.9046 -267.2493 30203.1322 -28.4783 26.2255
ENERGY: 1500000 5.8215 9.9011 5.4806 0.0000 -10489.8651 1370.7616 0.0000 0.0000 1724.4019 -7373.4985 294.0558 -9097.9004 -7395.8958 300.6321 -500.4132 -449.8610 30491.3971 -86.3508 -37.7751
TCL: Running FEP window  12: Lambda1 0.5499999999999999 Lambda2 0.6    [dLambda 0.050000000000000044]
TCL: Setting parameter firsttimestep to 0
TCL: Setting parameter alchLambda to 0.5499999999999999
Info: NONBONDED TABLE R-SQUARED SPACING: 0.0625
Info: NONBONDED TABLE SIZE: 705 POINTS
TCL: Setting parameter alchLambda2 to 0.6
Info: NONBONDED TABLE R-SQUARED SPACING: 0.0625
Info: NONBONDED TABLE SIZE: 705 POINTS
TCL: Running for 1500000 steps
ETITLE: TS BOND ANGLE DIHED IMPRP ELECT VDW BOUNDARY MISC KINETIC TOTAL TEMP POTENTIAL TOTALAVG TEMPAVG PRESSURE GPRESSURE VOLUME PRESSAVG GPRESSAVG
ENERGY: 0 5.8215 9.9011 5.4806 0.0000 -10490.2659 1371.1982 0.0000 0.0000 1723.5218 -7374.3429 293.9057 -9097.8646 -7374.3429 293.9057 -512.8642 -433.7100 30491.3971 -512.8642 -433.7100
ENERGY: 300000 5.0060 12.7612 8.5213 0.0000 -10690.7915 1468.0639 0.0000 0.0000 1718.1991 -7478.2399 292.9980 -9196.4391 -7405.2494 301.6074 204.5206 238.1197 30025.3871 22.8485 70.5668
ENERGY: 600000 2.6102 12.2927 6.3448 0.0000 -10759.7871 1496.3716 0.0000 0.0000 1729.2355 -7512.9324 294.8800 -9242.1679 -7414.3487 300.5424 -202.7130 -134.2566 30712.6290 -52.6896 -5.9750
ENERGY: 900000 1.9495 15.3277 10.1232 0.0000 -10749.1443 1543.0176 0.0000 0.0000 1762.1616 -7416.5647 300.4948 -9178.7263 -7409.8757 300.5681 936.4320 1004.3409 29983.5667 31.1693 78.1567
ENERGY: 1200000 1.7143 14.2067 7.4518 0.0000 -10632.4952 1447.9923 0.0000 0.0000 1726.0755 -7435.0546 294.3411 -9161.1301 -7407.1853 300.0394 279.1540 375.7523 29886.0928 36.9470 89.5019
ENERGY: 1500000 2.1161 17.7900 7.5223 0.0000 -10436.6466 1273.4723 0.0000 0.0000 1726.2787 -7409.4671 294.3758 -9135.7458 -7402.6660 299.5160 -1320.7022 -1236.2341 30652.9196 -103.5382 -53.5440
TCL: Running FEP window  13: Lambda1 0.6    Lambda2 0.65   [dLambda 0.050000000000000044]
TCL: Setting parameter firsttimestep to 0
TCL: Setting parameter alchLambda to 0.6
Info: NONBONDED TABLE R-SQUARED SPACING: 0.0625
Info: NONBONDED TABLE SIZE: 705 POINTS
TCL: Setting parameter alchLambda2 to 0.65
Info: NONBONDED TABLE R-SQUARED SPACING: 0.0625
Info: NONBONDED TABLE SIZE: 705 POINTS
TCL: Running for 1500000 steps
ETITLE: TS BOND ANGLE DIHED IMPRP ELECT VDW BOUNDARY MISC KINETIC TOTAL TEMP POTENTIAL TOTALAVG TEMPAVG PRESSURE GPRESSURE VOLUME PRESSAVG GPRESSAVG
ENERGY: 0 2.1161 17.7900 7.5223 0.0000 -10437.0014 1273.4909 0.0000 0.0000 1725.4092 -7410.6728 294.2275 -9136.0820 -7410.6728 294.2275 -1301.8514 -1226.5714 30652.9196 -1301.8514 -1226.5714
ENERGY: 300000 5.0009 15.9770 6.2305 0.0000 -10594.3878 1376.2787 0.0000 0.0000 1773.9137 -7416.9870 302.4988 -9190.9007 -7433.5126 297.1458 -247.6026 -202.2859 30233.5765 -505.8463 -440.6305
ENERGY: 600000 4.1819 12.1088 4.8633 0.0000 -10563.5693 1344.3055 0.0000 0.0000 1772.9275 -7425.1822 302.3306 -9198.1097 -7408.8331 301.0118 -611.1851 -529.9469 29822.4572 -412.4291 -352.2341
ENERGY: 900000 1.4849 15.8517 4.4495 0.0000 -10596.8605 1437.4885 0.0000 0.0000 1733.8596 -7403.7264 295.6685 -9137.5860 -7420.5450 299.5205 163.6459 170.6217 30138.9274 -356.5586 -305.3181
ENERGY: 1200000 3.2822 23.0979 9.5598 0.0000 -10703.8070 1470.3070 0.0000 0.0000 1808.5541 -7389.0059 308.4059 -9197.5601 -7414.7171 300.2059 131.6877 231.3933 30556.5800 -266.6199 -210.4919
ENERGY: 1500000 6.1910 18.9359 7.0250 0.0000 -10428.1742 1347.0108 0.0000 0.0000 1767.8139 -7281.1976 301.4586 -9049.0115 -7403.0666 300.8132 -196.9920 -182.2933 29969.6047 -266.2939 -213.3779
TCL: Running FEP window  14: Lambda1 0.65   Lambda2 0.7000000000000001 [dLambda 0.050000000000000044]
TCL: Setting parameter firsttimestep to 0
TCL: Setting parameter alchLambda to 0.65
Info: NONBONDED TABLE R-SQUARED SPACING: 0.0625
Info: NONBONDED TABLE SIZE: 705 POINTS
TCL: Setting parameter alchLambda2 to 0.7000000000000001
Info: NONBONDED TABLE R-SQUARED SPACING: 0.0625
Info: NONBONDED TABLE SIZE: 705 POINTS
TCL: Running for 1500000 steps
ETITLE: TS BOND ANGLE DIHED IMPRP ELECT VDW BOUNDARY MISC KINETIC TOTAL TEMP POTENTIAL TOTALAVG TEMPAVG PRESSURE GPRESSURE VOLUME PRESSAVG GPRESSAVG
ENERGY: 0 6.1910 18.9359 7.0250 0.0000 -10428.2685 1347.4246 0.0000 0.0000 1766.9456 -7281.7465 301.3106 -9048.6921 -7281.7465 301.3106 -230.4202 -163.1144 29969.6047 -230.4202 -163.1144
ENERGY: 300000 0.8751 11.4403 8.6134 0.0000 -10478.8149 1375.7151 0.0000 0.0000 1813.0230 -7269.1481 309.1680 -9082.1710 -7334.8635 302.1609 29.4873 159.4309 29985.1644 -78.2883 -3.6265
ENERGY: 600000 2.7087 14.9210 10.1126 0.0000 -10504.1951 1378.7564 0.0000 0.0000 1763.9676 -7333.7288 300.8027 -9097.6964 -7338.5932 300.2632 -384.0911 -380.9416 30831.0789 -150.3565 -91.7403
ENERGY: 900000 4.0523 12.6997 6.4742 0.0000 -10489.9900 1337.8817 0.0000 0.0000 1771.3423 -7357.5397 302.0603 -9128.8821 -7357.7754 300.5594 -536.6117 -484.0432 30213.1555 -68.4417 -11.4363
ENERGY: 1200000 6.2669 10.0618 5.2712 0.0000 -10444.2732 1330.8552 0.0000 0.0000 1766.4710 -7325.3471 301.2296 -9091.8181 -7363.6250 300.3094 -686.7550 -643.7027 30728.5266 -107.6622 -52.5358
ENERGY: 1500000 1.1055 18.9291 6.2934 0.0000 -10583.6514 1385.7372 0.0000 0.0000 1802.0057 -7369.5805 307.2892 -9171.5862 -7367.8950 300.6721 -117.0494 -66.1968 29995.7056 -182.8841 -124.7358
TCL: Running FEP window  15: Lambda1 0.7000000000000001 Lambda2 0.7500000000000001 [dLambda 0.050000000000000044]
TCL: Setting parameter firsttimestep to 0
TCL: Setting parameter alchLambda to 0.7000000000000001
Info: NONBONDED TABLE R-SQUARED SPACING: 0.0625
Info: NONBONDED TABLE SIZE: 705 POINTS
TCL: Setting parameter alchLambda2 to 0.7500000000000001
Info: NONBONDED TABLE R-SQUARED SPACING: 0.0625
Info: NONBONDED TABLE SIZE: 705 POINTS
TCL: Running for 1500000 steps
ETITLE: TS BOND ANGLE DIHED IMPRP ELECT VDW BOUNDARY MISC KINETIC TOTAL TEMP POTENTIAL TOTALAVG TEMPAVG PRESSURE GPRESSURE VOLUME PRESSAVG GPRESSAVG
ENERGY: 0 1.1055 18.9291 6.2934 0.0000 -10585.2852 1386.0201 0.0000 0.0000 1801.1500 -7371.7872 307.1433 -9172.9371 -7371.7872 307.1433 -130.6909 -56.4013 29995.7056 -130.6909 -56.4013
ENERGY: 300000 7.4420 12.2677 6.0715 0.0000 -10441.2663 1380.7889 0.0000 0.0000 1805.1880 -7229.5082 307.8319 -9034.6962 -7328.1879 307.9532 -16.8612 56.8061 30592.1601 178.8967 244.8047
ENERGY: 600000 3.1953 15.0057 5.3462 0.0000 -10610.6063 1449.9204 0.0000 0.0000 1758.4045 -7378.7342 299.8541 -9137.1387 -7355.4201 304.1880 369.5972 410.7178 30153.0491 144.9040 212.7179
ENERGY: 900000 3.3411 14.8273 6.7462 0.0000 -10561.6544 1427.0546 0.0000 0.0000 1710.3427 -7399.3425 291.6583 -9109.6852 -7389.2101 302.5873 45.0491 72.9690 30492.0517 119.5560 179.7540
ENERGY: 1200000 4.9823 13.3000 4.8247 0.0000 -10585.2228 1469.0105 0.0000 0.0000 1771.2684 -7321.8368 302.0477 -9093.1053 -7388.7645 302.3567 565.2515 665.1777 30169.1739 207.7818 271.5942
ENERGY: 1500000 3.0118 14.0119 4.5066 0.0000 -10568.3153 1445.7494 0.0000 0.0000 1704.6622 -7396.3733 290.6896 -9101.0355 -7388.3172 301.3575 293.0188 393.8999 30099.8371 237.7406 300.1406
TCL: Running FEP window  16: Lambda1 0.7500000000000001 Lambda2 0.8000000000000002 [dLambda 0.050000000000000044]
TCL: Setting parameter firsttimestep to 0
TCL: Setting parameter alchLambda to 0.7500000000000001
Info: NONBONDED TABLE R-SQUARED SPACING: 0.0625
Info: NONBONDED TABLE SIZE: 705 POINTS
TCL: Setting parameter alchLambda2 to 0.8000000000000002
Info: NONBONDED TABLE R-SQUARED SPACING: 0.0625
Info: NONBONDED TABLE SIZE: 705 POINTS
TCL: Running for 1500000 steps
ETITLE: TS BOND ANGLE DIHED IMPRP ELECT VDW BOUNDARY MISC KINETIC TOTAL TEMP POTENTIAL TOTALAVG TEMPAVG PRESSURE GPRESSURE VOLUME PRESSAVG GPRESSAVG
ENERGY: 0 3.0118 14.0119 4.5066 0.0000 -10569.2126 1446.7938 0.0000 0.0000 1703.7845 -7397.1040 290.5399 -9100.8885 -7397.1040 290.5399 337.6886 416.6229 30099.8371 337.6886 416.6229
ENERGY: 300000 2.4424 14.8575 5.0668 0.0000 -10741.2990 1478.3448 0.0000 0.0000 1791.0285 -7449.5590 305.4173 -9240.5875 -7397.7075 299.4726 318.8835 388.5181 30140.1777 515.3167 563.8558
ENERGY: 600000 4.2587 11.8777 8.9617 0.0000 -10641.6190 1477.3806 0.0000 0.0000 1760.1463 -7378.9941 300.1511 -9139.1403 -7404.7229 298.4663 582.7731 644.3624 30047.3266 404.5254 442.0618
ENERGY: 900000 2.9172 9.7479 5.2085 0.0000 -10659.8978 1426.7673 0.0000 0.0000 1736.3429 -7478.9140 296.0920 -9215.2569 -7412.1987 298.8076 -32.6051 1.5059 29989.1068 366.5853 412.5383
ENERGY: 1200000 3.7993 12.9611 9.5642 0.0000 -10622.2623 1419.7930 0.0000 0.0000 1778.4572 -7397.6875 303.2736 -9176.1447 -7409.1913 298.8463 -206.8571 -142.0976 30193.3636 314.9105 361.7080
ENERGY: 1500000 3.4791 16.1778 5.2456 0.0000 -10598.0540 1369.6983 0.0000 0.0000 1754.7836 -7448.6697 299.2366 -9203.4533 -7405.6543 298.8989 -526.1078 -460.9227 30230.5157 190.8792 238.7768
TCL: Running FEP window  17: Lambda1 0.8000000000000002 Lambda2 0.8500000000000002 [dLambda 0.050000000000000044]
TCL: Setting parameter firsttimestep to 0
TCL: Setting parameter alchLambda to 0.8000000000000002
Info: NONBONDED TABLE R-SQUARED SPACING: 0.0625
Info: NONBONDED TABLE SIZE: 705 POINTS
TCL: Setting parameter alchLambda2 to 0.8500000000000002
Info: NONBONDED TABLE R-SQUARED SPACING: 0.0625
Info: NONBONDED TABLE SIZE: 705 POINTS
TCL: Running for 1500000 steps
ETITLE: TS BOND ANGLE DIHED IMPRP ELECT VDW BOUNDARY MISC KINETIC TOTAL TEMP POTENTIAL TOTALAVG TEMPAVG PRESSURE GPRESSURE VOLUME PRESSAVG GPRESSAVG
ENERGY: 0 3.4791 16.1778 5.2456 0.0000 -10600.0580 1371.9800 0.0000 0.0000 1753.8995 -7449.2761 299.0859 -9203.1756 -7449.2761 299.0859 -529.5199 -430.9926 30230.5157 -529.5199 -430.9926
ENERGY: 300000 0.8919 13.0204 7.5939 0.0000 -10606.1601 1415.9181 0.0000 0.0000 1749.7314 -7419.0044 298.3751 -9168.7358 -7443.0787 299.3567 120.7722 137.0308 30204.8949 -234.5811 -157.3381
ENERGY: 600000 3.3188 13.9625 5.5932 0.0000 -10685.3372 1425.5823 0.0000 0.0000 1771.5024 -7465.3780 302.0876 -9236.8804 -7437.8080 301.0376 144.5615 261.0477 29519.6645 -157.3923 -70.5299
ENERGY: 900000 2.4559 15.6566 4.7794 0.0000 -10592.7152 1430.0881 0.0000 0.0000 1761.1902 -7378.5450 300.3291 -9139.7352 -7425.0628 300.7239 410.6792 506.9882 29874.8182 -199.9296 -120.3059
ENERGY: 1200000 2.6991 10.6939 5.8869 0.0000 -10602.5684 1427.5466 0.0000 0.0000 1732.5401 -7423.2019 295.4435 -9155.7420 -7420.4720 300.3673 -90.1103 27.0405 30374.9279 -127.3058 -44.0171
ENERGY: 1500000 3.8764 13.1267 7.0759 0.0000 -10655.4623 1402.5648 0.0000 0.0000 1719.9617 -7508.8568 293.2986 -9228.8185 -7424.6704 299.4850 -441.8707 -403.4611 30436.4051 -195.1720 -115.3700
TCL: Running FEP window  18: Lambda1 0.8500000000000002 Lambda2 0.9000000000000002 [dLambda 0.050000000000000044]
TCL: Setting parameter firsttimestep to 0
TCL: Setting parameter alchLambda to 0.8500000000000002
Info: NONBONDED TABLE R-SQUARED SPACING: 0.0625
Info: NONBONDED TABLE SIZE: 705 POINTS
TCL: Setting parameter alchLambda2 to 0.9000000000000002
Info: NONBONDED TABLE R-SQUARED SPACING: 0.0625
Info: NONBONDED TABLE SIZE: 705 POINTS
TCL: Running for 1500000 steps
ETITLE: TS BOND ANGLE DIHED IMPRP ELECT VDW BOUNDARY MISC KINETIC TOTAL TEMP POTENTIAL TOTALAVG TEMPAVG PRESSURE GPRESSURE VOLUME PRESSAVG GPRESSAVG
ENERGY: 0 3.8764 13.1267 7.0759 0.0000 -10656.9433 1403.0726 0.0000 0.0000 1719.0656 -7510.7261 293.1458 -9229.7917 -7510.7261 293.1458 -461.9507 -385.3307 30436.4051 -461.9507 -385.3307
ENERGY: 300000 4.7969 17.7420 5.0109 0.0000 -10602.1419 1423.9872 0.0000 0.0000 1744.9283 -7405.6767 297.5560 -9150.6050 -7421.0297 299.5215 -152.3959 -80.0679 30615.6405 -231.4095 -141.9174
ENERGY: 600000 3.1477 21.0332 5.5086 0.0000 -10474.0712 1325.4399 0.0000 0.0000 1768.4118 -7350.5299 301.5606 -9118.9418 -7417.0976 300.6475 -581.0547 -582.0283 30422.7787 -270.1117 -201.1451
ENERGY: 900000 2.4572 17.7508 6.8861 0.0000 -10634.3557 1363.9064 0.0000 0.0000 1708.5036 -7534.8516 291.3447 -9243.3553 -7433.9759 299.1774 -560.5155 -629.7731 30038.1342 -243.7279 -189.5151
ENERGY: 1200000 1.9453 15.7784 6.5206 0.0000 -10588.4133 1412.0061 0.0000 0.0000 1727.6143 -7424.5486 294.6035 -9152.1629 -7435.7609 298.4740 -16.5920 58.7089 30519.7882 -274.9382 -216.1950
ENERGY: 1500000 5.6836 17.4475 8.5611 0.0000 -10709.7275 1507.2499 0.0000 0.0000 1741.4986 -7429.2867 296.9712 -9170.7853 -7433.5179 298.7724 873.7743 917.4691 30004.9556 -156.7491 -107.1089
TCL: Running FEP window  19: Lambda1 0.9000000000000002 Lambda2 0.9500000000000003 [dLambda 0.050000000000000044]
TCL: Setting parameter firsttimestep to 0
TCL: Setting parameter alchLambda to 0.9000000000000002
Info: NONBONDED TABLE R-SQUARED SPACING: 0.0625
Info: NONBONDED TABLE SIZE: 705 POINTS
TCL: Setting parameter alchLambda2 to 0.9500000000000003
Info: NONBONDED TABLE R-SQUARED SPACING: 0.0625
Info: NONBONDED TABLE SIZE: 705 POINTS
TCL: Running for 1500000 steps
ETITLE: TS BOND ANGLE DIHED IMPRP ELECT VDW BOUNDARY MISC KINETIC TOTAL TEMP POTENTIAL TOTALAVG TEMPAVG PRESSURE GPRESSURE VOLUME PRESSAVG GPRESSAVG
ENERGY: 0 5.6836 17.4475 8.5611 0.0000 -10711.0380 1507.4900 0.0000 0.0000 1740.6303 -7431.2254 296.8231 -9171.8557 -7431.2254 296.8231 855.9424 932.2570 30004.9556 855.9424 932.2570
ENERGY: 300000 3.1190 16.5026 4.7235 0.0000 -10744.8081 1500.9206 0.0000 0.0000 1807.9541 -7411.5884 308.3036 -9219.5425 -7449.5202 303.3720 523.3454 552.0597 30185.7679 328.6528 404.9070
ENERGY: 600000 2.8511 12.0741 6.3536 0.0000 -10685.5693 1455.9412 0.0000 0.0000 1725.4043 -7482.9450 294.2267 -9208.3493 -7448.5685 301.1570 299.1776 347.7152 30086.3836 173.2740 246.2230
ENERGY: 900000 2.9621 10.3896 5.1605 0.0000 -10512.3046 1369.2742 0.0000 0.0000 1780.1315 -7344.3866 303.5591 -9124.5181 -7440.8084 302.0127 -339.8453 -250.5951 30457.4512 12.4577 87.3575
ENERGY: 1200000 3.0382 12.1657 7.9354 0.0000 -10590.7353 1388.8058 0.0000 0.0000 1751.0917 -7427.6985 298.6071 -9178.7902 -7428.5104 301.4345 -341.8738 -251.6314 30235.1416 6.7084 81.8451
ENERGY: 1500000 4.0579 15.2507 4.9384 0.0000 -10583.7049 1382.0648 0.0000 0.0000 1803.4593 -7373.9337 307.5371 -9177.3931 -7417.3809 301.8238 -355.3089 -318.5016 30276.3606 -18.0215 56.8193
TCL: Running FEP window  20: Lambda1 0.9500000000000003 Lambda2 1.0    [dLambda 0.04999999999999971]
TCL: Setting parameter firsttimestep to 0
TCL: Setting parameter alchLambda to 0.9500000000000003
Info: NONBONDED TABLE R-SQUARED SPACING: 0.0625
Info: NONBONDED TABLE SIZE: 705 POINTS
TCL: Setting parameter alchLambda2 to 1.0
Info: NONBONDED TABLE R-SQUARED SPACING: 0.0625
Info: NONBONDED TABLE SIZE: 705 POINTS
TCL: Running for 1500000 steps
ETITLE: TS BOND ANGLE DIHED IMPRP ELECT VDW BOUNDARY MISC KINETIC TOTAL TEMP POTENTIAL TOTALAVG TEMPAVG PRESSURE GPRESSURE VOLUME PRESSAVG GPRESSAVG
ENERGY: 0 4.0579 15.2507 4.9384 0.0000 -10585.5417 1383.9303 0.0000 0.0000 1802.5801 -7374.7842 307.3872 -9177.3643 -7374.7842 307.3872 -354.6812 -278.7830 30276.3606 -354.6812 -278.7830
ENERGY: 300000 4.8296 14.5674 7.1774 0.0000 -10630.4955 1443.3232 0.0000 0.0000 1784.8705 -7375.7273 304.3672 -9160.5978 -7395.7481 299.1131 384.7771 475.7552 30054.8349 -30.5715 24.0580
ENERGY: 600000 2.0536 13.2153 6.0835 0.0000 -10653.0303 1401.9346 0.0000 0.0000 1757.2943 -7472.4490 299.6648 -9229.7433 -7440.4607 295.9730 -137.7670 -61.8752 30185.7005 -118.4205 -55.8949
ENERGY: 900000 2.9734 19.7186 7.3853 0.0000 -10580.3784 1394.3513 0.0000 0.0000 1766.2122 -7389.7376 301.1855 -9155.9498 -7425.3904 297.7209 -118.3989 -41.7644 30180.3954 -58.1175 6.5112
ENERGY: 1200000 1.0963 16.6587 6.1782 0.0000 -10700.6705 1443.9627 0.0000 0.0000 1763.5895 -7469.1851 300.7383 -9232.7746 -7436.0641 298.1281 -129.1749 -109.7881 31007.7159 -65.5802 -12.6429
ENERGY: 1500000 3.0093 15.9757 5.5007 0.0000 -10592.3431 1404.5167 0.0000 0.0000 1796.0433 -7367.2974 306.2725 -9163.3407 -7427.9671 299.0330 -511.9830 -429.0994 30727.1543 -182.9218 -132.1938
TCL: Exiting due to exit command.
