Info: SIMULATION PARAMETERS:
Info: TIMESTEP               2
Info: NUMBER OF STEPS        0
Info: STEPS PER CYCLE        10
Info: PERIODIC CELL BASIS 1  29.1418 0 0
Info: PERIODIC CELL BASIS 2  0 29.4592 0
Info: PERIODIC CELL BASIS 3  0 0 34.5925
Info: PERIODIC CELL CENTER   0 0 0
Info: WRAPPING WATERS AROUND PERIODIC BOUNDARIES ON OUTPUT.
Info: WRAPPING ALL CLUSTERS AROUND PERIODIC BOUNDARIES ON OUTPUT.
Info: FIRST LDB TIMESTEP     50
Info: LAST LDB TIMESTEP     -1
Info: HOM BACKGROUND SCALING 1
Info: PME BACKGROUND SCALING 1
Info: MIN ATOMS PER PATCH    40
Info: EMPTY PATCH LOAD       40 ATOMS
Info: VELOCITY FILE          mobley_4587267_equil.vel
Info: CENTER OF MASS MOVING INITIALLY? NO
Info: DIELECTRIC             1
Info: EXCLUDE                SCALED ONE-FOUR
Info: 1-4 ELECTROSTATICS SCALED BY 0.833333
Info: MODIFIED 1-4 VDW PARAMETERS WILL BE USED
Info: DCD FILENAME           mobley_4587267_prod.dcd
Info: DCD FREQUENCY          100000
Info: DCD FIRST STEP         100000
Info: DCD FILE WILL CONTAIN UNIT CELL DATA
Info: XST FILENAME           mobley_4587267_prod.xst
Info: XST FREQUENCY          100000
Info: NO VELOCITY DCD OUTPUT
Info: NO FORCE DCD OUTPUT
Info: OUTPUT FILENAME        mobley_4587267_prod
Info: BINARY OUTPUT FILES WILL BE USED
Info: RESTART FILENAME       mobley_4587267_prod.restart
Info: RESTART FREQUENCY      100000
Info: BINARY RESTART FILES WILL BE USED
Info: CUTOFF                 9
Info: PAIRLIST DISTANCE      11
Info: PAIRLIST SHRINK RATE   0.01
Info: PAIRLIST GROW RATE     0.01
Info: PAIRLIST TRIGGER       0.3
Info: PAIRLISTS PER CYCLE    2
Info: PAIRLISTS ENABLED
Info: MARGIN                 2
Info: HYDROGEN GROUP CUTOFF  2.5
Info: PATCH DIMENSION        15.5
Info: ENERGY OUTPUT STEPS    100000
Info: ENERGY EVALUATION STEPS    100000
Info: OUTPUT ENERGY PRECISION 4
Info: CROSSTERM ENERGY INCLUDED IN DIHEDRAL
Info: TIMING OUTPUT STEPS    1000000
Info: PRESSURE OUTPUT STEPS  100000
Info: ALCHEMICAL FEP ON
Info: FEP CURRENT LAMBDA VALUE     0
Info: FEP COMPARISON LAMBDA VALUE  0.05
Info: FEP INTRA-ALCHEMICAL NON-BONDED INTERACTIONS WILL BE RETAINED
Info: FEP INTRA-ALCHEMICAL BONDED INTERACTIONS WILL BE RETAINED
Info: FEP VDW SHIFTING COEFFICIENT 5
Info: FEP ELEC. ACTIVE FOR ANNIHILATED PARTICLES BETWEEN LAMBDA = 0 AND LAMBDA = 0.5
Info: FEP ELEC. ACTIVE FOR EXNIHILATED PARTICLES BETWEEN LAMBDA = 0.5 AND LAMBDA = 1
Info: FEP VDW ACTIVE FOR ANNIHILATED PARTICLES BETWEEN LAMBDA = 0 AND LAMBDA = 1
Info: FEP VDW ACTIVE FOR EXNIHILATED PARTICLES BETWEEN LAMBDA = 0 AND LAMBDA = 1
Info: FEP BOND ACTIVE FOR ANNIHILATED PARTICLES BETWEEN LAMBDA = 1 AND LAMBDA = 1
Info: FEP BOND ACTIVE FOR EXNIHILATED PARTICLES BETWEEN LAMBDA = 0 AND LAMBDA = 0
Info: LANGEVIN DYNAMICS ACTIVE
Info: LANGEVIN TEMPERATURE   300
Info: LANGEVIN USING BBK INTEGRATOR
Info: LANGEVIN DAMPING COEFFICIENT IS 1 INVERSE PS
Info: LANGEVIN DYNAMICS APPLIED TO HYDROGENS
Info: LANGEVIN PISTON PRESSURE CONTROL ACTIVE
Info:        TARGET PRESSURE IS 1.01325 BAR
Info:     OSCILLATION PERIOD IS 50 FS
Info:             DECAY TIME IS 25 FS
Info:     PISTON TEMPERATURE IS 300 K
Info:       PRESSURE CONTROL IS GROUP-BASED
Info:    INITIAL STRAIN RATE IS -0.000138562 -0.000138562 -0.000138562
Info:       CELL FLUCTUATION IS ISOTROPIC
Info: PARTICLE MESH EWALD (PME) ACTIVE
Info: PME TOLERANCE               1e-06
Info: PME EWALD COEFFICIENT       0.348832
Info: PME INTERPOLATION ORDER     4
Info: PME GRID DIMENSIONS         32 32 36
Info: PME MAXIMUM GRID SPACING    1
Info: PME CALCULATION WILL BE PERFORMED ON GPU
Info: FULL ELECTROSTATIC EVALUATION FREQUENCY      2
Info: USING VERLET I (r-RESPA) MTS SCHEME.
Info: C1 SPLITTING OF LONG RANGE ELECTROSTATICS
Info: PLACING ATOMS IN PATCHES BY HYDROGEN GROUPS
Info: RIGID BONDS TO HYDROGEN : ALL
Info:         ERROR TOLERANCE : 1e-08
Info:          MAX ITERATIONS : 100
Info: RIGID WATER USING SETTLE ALGORITHM
Info: RANDOM NUMBER SEED     1744035679
Info: USE HYDROGEN BONDS?    NO
Info: Using AMBER format force field!
Info: AMBER PARM FILE        mobley_4587267.prmtop
Info: COORDINATE PDB         mobley_4587267.pdb
Info: Exclusions will be read from PARM file!
Info: SCNB (VDW SCALING)     2
Info: USING ARITHMETIC MEAN TO COMBINE L-J SIGMA PARAMETERS
Info: BINARY COORDINATES     mobley_4587267_equil.coor
Info: SUMMARY OF PARAMETERS:
Info: 6 BONDS
Info: 6 ANGLES
Info:   6 HARMONIC
Info:   0 COSINE-BASED
Info: 10 DIHEDRAL
Info: 0 IMPROPER
Info: 0 CROSSTERM
Info: 0 VDW
Info: 15 VDW_PAIRS
Info: 0 NBTHOLE_PAIRS
Info: To read alchdata from file: mobley_4587267.pdb
Info: To read alchflag data from column: 5
Info: STRUCTURE SUMMARY:
Info: 2942 ATOMS
Info: 2941 BONDS
Info: 42 ANGLES
Info: 96 DIHEDRALS
Info: 0 IMPROPERS
Info: 0 CROSSTERMS
Info: 3046 EXCLUSIONS
Info: 2930 RIGID BONDS
Info: ALCH: 0 ATOMS TO DISAPPEAR IN FINAL STATE
Info: ALCH: 26 ATOMS TO APPEAR IN FINAL STATE
Info: 5896 DEGREES OF FREEDOM
Info: 984 HYDROGEN GROUPS
Info: 3 ATOMS IN LARGEST HYDROGEN GROUP
Info: 984 MIGRATION GROUPS
Info: 3 ATOMS IN LARGEST MIGRATION GROUP
Info: TOTAL MASS = 17693.7 amu
Info: TOTAL CHARGE = -1.41561e-07 e
Info: MASS DENSITY = 0.989371 g/cm^3
Info: ATOM DENSITY = 0.0990657 atoms/A^3
Info: ADDED 0 IMPLICIT EXCLUSIONS
Info: NONBONDED TABLE R-SQUARED SPACING: 0.0625
Info: NONBONDED TABLE SIZE: 705 POINTS
Info: REMOVING COM VELOCITY 0.0384351 -0.039208 -0.170248
Info: Use 3D box decompostion in PME FFT.
Info: Updated CUDA force table with 4096 elements.
Info: Updated CUDA LJ table with 5 x 5 elements.
Info: Found 29 unique exclusion lists needing 100 bytes
TCL: Running for 1500000 steps
ETITLE: TS BOND ANGLE DIHED IMPRP ELECT VDW BOUNDARY MISC KINETIC TOTAL TEMP POTENTIAL TOTALAVG TEMPAVG PRESSURE GPRESSURE VOLUME PRESSAVG GPRESSAVG
ENERGY: 0 9.2632 15.1829 14.5762 0.0000 -10641.5927 1498.2262 0.0000 0.0000 1740.1720 -7364.1722 297.0469 -9104.3443 -7364.1722 297.0469 664.1580 745.9033 29697.4609 664.1580 745.9033
ENERGY: 300000 5.6851 13.0246 13.2617 0.0000 -10601.1954 1469.1131 0.0000 0.0000 1705.0764 -7395.0345 291.0561 -9100.1109 -7382.6097 295.1470 280.5118 344.0246 30160.2500 130.7463 214.2972
ENERGY: 600000 5.9382 13.0581 12.9908 0.0000 -10575.2431 1375.7179 0.0000 0.0000 1745.4138 -7422.1243 297.9417 -9167.5381 -7384.8748 298.5752 -833.6565 -749.2867 29965.7006 -73.2402 -0.6160
ENERGY: 900000 5.5260 10.8669 12.0599 0.0000 -10505.1234 1377.3523 0.0000 0.0000 1752.5265 -7346.7918 299.1558 -9099.3183 -7369.3565 298.7147 -863.1189 -772.4456 30298.5536 -191.0666 -120.1837
ENERGY: 1200000 4.5001 10.0660 16.3679 0.0000 -10498.3468 1346.6890 0.0000 0.0000 1824.9341 -7295.7897 311.5158 -9120.7238 -7357.6633 300.7661 -449.6877 -361.4569 29497.6846 -207.2568 -138.4044
ENERGY: 1500000 2.5903 15.5844 12.0170 0.0000 -10688.1573 1486.3046 0.0000 0.0000 1768.3681 -7403.2930 301.8600 -9171.6611 -7354.5666 301.4777 469.0632 510.5101 29731.1901 -153.7855 -95.2619
TCL: Running FEP window   2: Lambda1 0.05   Lambda2 0.1    [dLambda 0.05  ]
TCL: Setting parameter firsttimestep to 0
TCL: Setting parameter alchLambda to 0.05
Info: NONBONDED TABLE R-SQUARED SPACING: 0.0625
Info: NONBONDED TABLE SIZE: 705 POINTS
TCL: Setting parameter alchLambda2 to 0.1
Info: NONBONDED TABLE R-SQUARED SPACING: 0.0625
Info: NONBONDED TABLE SIZE: 705 POINTS
TCL: Running for 1500000 steps
ETITLE: TS BOND ANGLE DIHED IMPRP ELECT VDW BOUNDARY MISC KINETIC TOTAL TEMP POTENTIAL TOTALAVG TEMPAVG PRESSURE GPRESSURE VOLUME PRESSAVG GPRESSAVG
ENERGY: 0 2.5903 15.5844 12.0170 0.0000 -10688.1568 1489.5511 0.0000 0.0000 1767.4732 -7400.9408 301.7073 -9168.4140 -7400.9408 301.7073 427.2087 517.6827 29731.1901 427.2087 517.6827
ENERGY: 300000 3.6228 10.2339 12.7488 0.0000 -10565.3626 1412.6049 0.0000 0.0000 1764.2586 -7361.8936 301.1585 -9126.1522 -7331.2236 299.5491 -282.8130 -230.4617 30436.9947 -37.3461 14.4784
ENERGY: 600000 5.2857 10.7353 12.6919 0.0000 -10676.8941 1466.9687 0.0000 0.0000 1757.5627 -7423.6498 300.0155 -9181.2125 -7363.7258 299.3371 208.4280 221.9843 29512.3579 47.4619 88.6917
ENERGY: 900000 5.6446 16.4972 12.6236 0.0000 -10511.8099 1392.5077 0.0000 0.0000 1780.5058 -7304.0311 303.9319 -9084.5369 -7355.0351 300.8095 -575.9044 -528.3157 30766.1687 10.1862 59.4634
ENERGY: 1200000 3.6457 12.7405 11.6659 0.0000 -10613.5415 1454.6015 0.0000 0.0000 1757.6434 -7373.2444 300.0293 -9130.8879 -7353.1362 300.7278 94.1211 189.2420 30157.8057 -28.9694 28.1601
ENERGY: 1500000 3.9074 9.9612 14.3105 0.0000 -10597.0651 1473.9415 0.0000 0.0000 1762.3235 -7332.6211 300.8282 -9094.9446 -7348.5180 300.9718 -73.7159 -15.5593 30715.8472 -56.1899 4.5338
TCL: Running FEP window   3: Lambda1 0.1    Lambda2 0.15000000000000002 [dLambda 0.05000000000000002]
TCL: Setting parameter firsttimestep to 0
TCL: Setting parameter alchLambda to 0.1
Info: NONBONDED TABLE R-SQUARED SPACING: 0.0625
Info: NONBONDED TABLE SIZE: 705 POINTS
TCL: Setting parameter alchLambda2 to 0.15000000000000002
Info: NONBONDED TABLE R-SQUARED SPACING: 0.0625
Info: NONBONDED TABLE SIZE: 705 POINTS
TCL: Running for 1500000 steps
ETITLE: TS BOND ANGLE DIHED IMPRP ELECT VDW BOUNDARY MISC KINETIC TOTAL TEMP POTENTIAL TOTALAVG TEMPAVG PRESSURE GPRESSURE VOLUME PRESSAVG GPRESSAVG
ENERGY: 0 3.9074 9.9612 14.3105 0.0000 -10597.0645 1474.9257 0.0000 0.0000 1761.4208 -7332.5389 300.6741 -9093.9597 -7332.5389 300.6741 -97.5025 -8.2166 30715.8472 -97.5025 -8.2166
ENERGY: 300000 1.2543 10.9846 12.3025 0.0000 -10648.0926 1411.3144 0.0000 0.0000 1714.0454 -7498.1914 292.5871 -9212.2368 -7375.6622 299.2073 -306.9734 -259.5570 29641.7552 -151.8445 -83.4564
ENERGY: 600000 4.1693 11.8762 15.4920 0.0000 -10595.6921 1395.2337 0.0000 0.0000 1725.1886 -7443.7323 294.4893 -9168.9208 -7363.7358 298.8200 -627.6551 -564.0228 30096.6359 -170.3420 -99.3786
ENERGY: 900000 3.9361 11.4208 13.1228 0.0000 -10689.9645 1432.5433 0.0000 0.0000 1794.2744 -7434.6672 306.2822 -9228.9415 -7364.2200 300.3894 -433.4052 -336.0637 30102.6701 -147.5845 -74.5946
ENERGY: 1200000 6.6549 13.1979 12.4779 0.0000 -10576.1439 1472.2977 0.0000 0.0000 1721.5900 -7349.9254 293.8750 -9071.5155 -7360.7654 299.2650 415.6985 507.7053 29683.4388 -36.2855 44.7448
ENERGY: 1500000 3.4327 16.8148 15.3203 0.0000 -10631.9480 1469.1587 0.0000 0.0000 1768.7426 -7358.4788 301.9239 -9127.2215 -7365.2974 299.0792 395.5684 385.8087 29760.9749 -26.7155 46.5421
TCL: Running FEP window   4: Lambda1 0.15000000000000002 Lambda2 0.2    [dLambda 0.04999999999999999]
TCL: Setting parameter firsttimestep to 0
TCL: Setting parameter alchLambda to 0.15000000000000002
Info: NONBONDED TABLE R-SQUARED SPACING: 0.0625
Info: NONBONDED TABLE SIZE: 705 POINTS
TCL: Setting parameter alchLambda2 to 0.2
Info: NONBONDED TABLE R-SQUARED SPACING: 0.0625
Info: NONBONDED TABLE SIZE: 705 POINTS
TCL: Running for 1500000 steps
ETITLE: TS BOND ANGLE DIHED IMPRP ELECT VDW BOUNDARY MISC KINETIC TOTAL TEMP POTENTIAL TOTALAVG TEMPAVG PRESSURE GPRESSURE VOLUME PRESSAVG GPRESSAVG
ENERGY: 0 3.4327 16.8148 15.3203 0.0000 -10631.9463 1469.4484 0.0000 0.0000 1767.8405 -7359.0896 301.7699 -9126.9301 -7359.0896 301.7699 322.2049 393.2870 29760.9749 322.2049 393.2870
ENERGY: 300000 5.4159 7.3357 12.3061 0.0000 -10530.3965 1393.8815 0.0000 0.0000 1732.0295 -7379.4278 295.6570 -9111.4572 -7364.7982 299.2330 -506.8058 -457.0396 30208.1372 108.7478 171.2323
ENERGY: 600000 2.4772 15.6376 15.1091 0.0000 -10599.0198 1400.5848 0.0000 0.0000 1711.4919 -7453.7192 292.1513 -9165.2111 -7371.5984 299.1424 -449.5659 -405.4115 29844.4250 54.2096 114.5335
ENERGY: 900000 1.9637 13.6733 18.9154 0.0000 -10588.1051 1441.8999 0.0000 0.0000 1768.5222 -7343.1305 301.8863 -9111.6527 -7368.2750 300.3665 362.5701 474.3988 29695.1663 128.2758 198.4695
ENERGY: 1200000 4.3784 13.1357 14.9503 0.0000 -10677.9221 1451.7540 0.0000 0.0000 1784.4080 -7409.2957 304.5980 -9193.7037 -7377.1397 301.2505 289.5594 289.4466 29775.2269 57.1239 128.4919
ENERGY: 1500000 3.9090 11.1971 16.1299 0.0000 -10660.6015 1504.3274 0.0000 0.0000 1775.1590 -7349.8789 303.0192 -9125.0380 -7374.3932 301.1434 532.2316 630.6423 29659.8709 99.1145 172.1180
TCL: Running FEP window   5: Lambda1 0.2    Lambda2 0.25   [dLambda 0.04999999999999999]
TCL: Setting parameter firsttimestep to 0
TCL: Setting parameter alchLambda to 0.2
Info: NONBONDED TABLE R-SQUARED SPACING: 0.0625
Info: NONBONDED TABLE SIZE: 705 POINTS
TCL: Setting parameter alchLambda2 to 0.25
Info: NONBONDED TABLE R-SQUARED SPACING: 0.0625
Info: NONBONDED TABLE SIZE: 705 POINTS
TCL: Running for 1500000 steps
ETITLE: TS BOND ANGLE DIHED IMPRP ELECT VDW BOUNDARY MISC KINETIC TOTAL TEMP POTENTIAL TOTALAVG TEMPAVG PRESSURE GPRESSURE VOLUME PRESSAVG GPRESSAVG
ENERGY: 0 3.9090 11.1971 16.1299 0.0000 -10660.6004 1505.1383 0.0000 0.0000 1774.3170 -7349.9090 302.8755 -9124.2260 -7349.9090 302.8755 548.8616 635.9186 29659.8709 548.8616 635.9186
ENERGY: 300000 2.0897 12.7098 10.9020 0.0000 -10485.9674 1351.5033 0.0000 0.0000 1739.2480 -7369.5147 296.8892 -9108.7627 -7347.7774 302.2409 -703.3441 -683.7372 30521.6973 53.1194 126.0938
ENERGY: 600000 2.8089 16.1035 11.7394 0.0000 -10500.9278 1406.8196 0.0000 0.0000 1756.8915 -7306.5649 299.9010 -9063.4564 -7336.9141 301.6159 -230.4489 -173.4706 30382.5110 -73.4940 -16.0648
ENERGY: 900000 2.9380 16.2887 12.7605 0.0000 -10416.2354 1318.8022 0.0000 0.0000 1753.6213 -7311.8247 299.3427 -9065.4460 -7353.5884 300.6829 -990.6443 -904.3671 30471.4478 -160.7668 -98.9394
ENERGY: 1200000 3.6713 13.2355 13.7794 0.0000 -10668.9457 1483.9099 0.0000 0.0000 1711.3658 -7442.9838 292.1297 -9154.3496 -7355.8498 300.7108 44.2288 111.0905 30471.4331 -164.4450 -99.2976
ENERGY: 1500000 3.9689 9.7348 14.0795 0.0000 -10565.4627 1457.2960 0.0000 0.0000 1755.9505 -7324.4330 299.7403 -9080.3835 -7345.2771 300.7131 212.5875 311.1601 30020.4078 -101.9007 -24.1433
TCL: Running FEP window   6: Lambda1 0.25   Lambda2 0.3    [dLambda 0.04999999999999999]
TCL: Setting parameter firsttimestep to 0
TCL: Setting parameter alchLambda to 0.25
Info: NONBONDED TABLE R-SQUARED SPACING: 0.0625
Info: NONBONDED TABLE SIZE: 705 POINTS
TCL: Setting parameter alchLambda2 to 0.3
Info: NONBONDED TABLE R-SQUARED SPACING: 0.0625
Info: NONBONDED TABLE SIZE: 705 POINTS
TCL: Running for 1500000 steps
ETITLE: TS BOND ANGLE DIHED IMPRP ELECT VDW BOUNDARY MISC KINETIC TOTAL TEMP POTENTIAL TOTALAVG TEMPAVG PRESSURE GPRESSURE VOLUME PRESSAVG GPRESSAVG
ENERGY: 0 3.9689 9.7348 14.0795 0.0000 -10565.4652 1458.3556 0.0000 0.0000 1755.1244 -7324.2021 299.5993 -9079.3264 -7324.2021 299.5993 226.1703 322.8879 30020.4078 226.1703 322.8879
ENERGY: 300000 3.7260 16.1202 14.0201 0.0000 -10501.9105 1335.7052 0.0000 0.0000 1790.2209 -7342.1182 305.5903 -9132.3390 -7328.7728 306.2002 -879.5030 -796.5007 30413.4179 -299.2609 -213.8960
ENERGY: 600000 2.8628 19.0917 11.0721 0.0000 -10486.6680 1361.7498 0.0000 0.0000 1807.9859 -7283.9058 308.6228 -9091.8917 -7331.7394 303.6545 -646.6309 -567.9056 30390.4657 -343.0764 -258.3839
ENERGY: 900000 5.7382 14.6249 12.6875 0.0000 -10477.8544 1349.2249 0.0000 0.0000 1778.7250 -7316.8540 303.6279 -9095.5790 -7341.7886 302.3220 -544.4276 -495.2855 30534.9622 -340.9200 -262.1785
ENERGY: 1200000 4.2778 9.9653 9.9353 0.0000 -10558.2442 1439.1247 0.0000 0.0000 1777.2273 -7317.7137 303.3723 -9094.9410 -7352.4849 301.6952 -17.0271 75.4693 30428.0993 -317.9578 -242.6440
ENERGY: 1500000 3.5105 13.3410 12.1081 0.0000 -10526.3949 1422.2210 0.0000 0.0000 1715.4011 -7359.8132 292.8186 -9075.2143 -7359.5681 300.1990 167.2019 187.9805 30030.4896 -223.3079 -148.5645
TCL: Running FEP window   7: Lambda1 0.3    Lambda2 0.35   [dLambda 0.04999999999999999]
TCL: Setting parameter firsttimestep to 0
TCL: Setting parameter alchLambda to 0.3
Info: NONBONDED TABLE R-SQUARED SPACING: 0.0625
Info: NONBONDED TABLE SIZE: 705 POINTS
TCL: Setting parameter alchLambda2 to 0.35
Info: NONBONDED TABLE R-SQUARED SPACING: 0.0625
Info: NONBONDED TABLE SIZE: 705 POINTS
TCL: Running for 1500000 steps
ETITLE: TS BOND ANGLE DIHED IMPRP ELECT VDW BOUNDARY MISC KINETIC TOTAL TEMP POTENTIAL TOTALAVG TEMPAVG PRESSURE GPRESSURE VOLUME PRESSAVG GPRESSAVG
ENERGY: 0 3.5104 13.3409 12.1081 0.0000 -10526.3940 1423.9340 0.0000 0.0000 1714.5131 -7358.9874 292.6670 -9073.5005 -7358.9874 292.6670 118.3778 203.8288 30030.4896 118.3778 203.8288
ENERGY: 300000 5.8223 16.6863 13.8791 0.0000 -10629.9571 1440.9659 0.0000 0.0000 1761.4054 -7391.1980 300.6715 -9152.6034 -7370.8054 297.1825 -267.4473 -181.4032 30681.6454 -124.9431 -53.4885
ENERGY: 600000 3.7443 10.1238 13.2831 0.0000 -10465.9856 1333.9182 0.0000 0.0000 1759.4095 -7345.5068 300.3308 -9104.9163 -7370.8572 299.0165 -647.6286 -643.0167 30632.4669 -220.9041 -151.6937
ENERGY: 900000 5.9433 13.4134 12.0551 0.0000 -10666.2315 1479.3780 0.0000 0.0000 1736.7822 -7418.6595 296.4683 -9155.4417 -7371.5334 299.2189 21.2021 102.3769 30371.0545 -98.9812 -35.6144
ENERGY: 1200000 2.4037 11.9167 16.0352 0.0000 -10647.3436 1479.2730 0.0000 0.0000 1765.7488 -7371.9663 301.4129 -9137.7150 -7365.7163 298.5708 210.9195 347.6812 30204.0906 -57.9988 -0.7802
ENERGY: 1500000 6.1691 17.4799 12.0023 0.0000 -10721.3751 1477.9165 0.0000 0.0000 1711.0637 -7496.7437 292.0782 -9207.8074 -7370.0775 298.3970 107.7239 110.7098 30252.3625 -78.1289 -25.4035
TCL: Running FEP window   8: Lambda1 0.35   Lambda2 0.39999999999999997 [dLambda 0.04999999999999999]
TCL: Setting parameter firsttimestep to 0
TCL: Setting parameter alchLambda to 0.35
Info: NONBONDED TABLE R-SQUARED SPACING: 0.0625
Info: NONBONDED TABLE SIZE: 705 POINTS
TCL: Setting parameter alchLambda2 to 0.39999999999999997
Info: NONBONDED TABLE R-SQUARED SPACING: 0.0625
Info: NONBONDED TABLE SIZE: 705 POINTS
TCL: Running for 1500000 steps
ETITLE: TS BOND ANGLE DIHED IMPRP ELECT VDW BOUNDARY MISC KINETIC TOTAL TEMP POTENTIAL TOTALAVG TEMPAVG PRESSURE GPRESSURE VOLUME PRESSAVG GPRESSAVG
ENERGY: 0 6.1691 17.4799 12.0023 0.0000 -10721.3756 1477.2451 0.0000 0.0000 1710.1687 -7498.3105 291.9254 -9208.4792 -7498.3105 291.9254 28.9368 111.8825 30252.3625 28.9368 111.8825
ENERGY: 300000 7.2017 16.8834 13.3772 0.0000 -10640.1747 1453.6478 0.0000 0.0000 1733.4238 -7415.6407 295.8950 -9149.0645 -7401.3014 294.5249 22.4361 57.9507 29904.8252 19.5557 65.2608
ENERGY: 600000 4.3440 12.1971 15.3277 0.0000 -10606.3537 1447.4815 0.0000 0.0000 1711.9442 -7415.0592 292.2285 -9127.0034 -7378.5287 296.2062 343.5403 416.0852 29496.1236 11.5601 73.5724
ENERGY: 900000 4.1560 13.3029 12.6938 0.0000 -10523.9305 1358.3429 0.0000 0.0000 1783.4158 -7352.0191 304.4286 -9135.4349 -7384.2521 297.6735 -467.5841 -414.1932 30028.8609 -145.8649 -79.7634
ENERGY: 1200000 2.9923 11.4594 11.3769 0.0000 -10564.4554 1432.5909 0.0000 0.0000 1748.4845 -7357.5514 298.4659 -9106.0358 -7383.3936 298.5691 -78.8453 -29.0712 30328.5212 -176.1167 -110.4252
ENERGY: 1500000 2.2972 8.8388 10.1265 0.0000 -10604.0193 1463.6582 0.0000 0.0000 1683.1122 -7435.9863 287.3069 -9119.0985 -7384.7269 298.2663 339.9196 411.2577 30068.0490 -201.8943 -136.1586
TCL: Running FEP window   9: Lambda1 0.39999999999999997 Lambda2 0.44999999999999996 [dLambda 0.04999999999999999]
TCL: Setting parameter firsttimestep to 0
TCL: Setting parameter alchLambda to 0.39999999999999997
Info: NONBONDED TABLE R-SQUARED SPACING: 0.0625
Info: NONBONDED TABLE SIZE: 705 POINTS
TCL: Setting parameter alchLambda2 to 0.44999999999999996
Info: NONBONDED TABLE R-SQUARED SPACING: 0.0625
Info: NONBONDED TABLE SIZE: 705 POINTS
TCL: Running for 1500000 steps
ETITLE: TS BOND ANGLE DIHED IMPRP ELECT VDW BOUNDARY MISC KINETIC TOTAL TEMP POTENTIAL TOTALAVG TEMPAVG PRESSURE GPRESSURE VOLUME PRESSAVG GPRESSAVG
ENERGY: 0 2.2972 8.8388 10.1265 0.0000 -10604.0178 1463.3171 0.0000 0.0000 1682.2607 -7437.1774 287.1615 -9119.4381 -7437.1774 287.1615 346.4157 415.9526 30068.0490 346.4157 415.9526
ENERGY: 300000 4.2205 8.6728 15.1295 0.0000 -10525.1590 1407.1855 0.0000 0.0000 1775.6513 -7314.2993 303.1033 -9089.9506 -7382.3875 297.2379 -523.5972 -463.8729 31097.5214 26.2358 79.7975
ENERGY: 600000 1.8577 14.1707 12.8635 0.0000 -10521.0218 1390.9650 0.0000 0.0000 1752.8681 -7348.2968 299.2142 -9101.1648 -7364.9058 299.3116 -287.5942 -307.9033 30470.7629 12.0838 70.8183
ENERGY: 900000 2.2828 11.9043 10.2299 0.0000 -10709.0100 1472.1561 0.0000 0.0000 1679.4840 -7532.9530 286.6875 -9212.4370 -7377.0797 298.0362 -85.3844 -9.1566 30242.3999 101.0746 151.8848
ENERGY: 1200000 1.5859 7.2697 15.5204 0.0000 -10543.0657 1487.0806 0.0000 0.0000 1783.0322 -7248.5769 304.3632 -9031.6091 -7369.6849 299.2229 883.1119 911.5678 30052.7542 -21.0120 25.3345
ENERGY: 1500000 2.5539 12.1536 12.7927 0.0000 -10565.4471 1410.0966 0.0000 0.0000 1751.7990 -7376.0512 299.0317 -9127.8502 -7371.8679 299.1570 -354.5612 -275.3407 30776.9274 -22.8469 24.9234
TCL: Running FEP window  10: Lambda1 0.44999999999999996 Lambda2 0.49999999999999994 [dLambda 0.04999999999999999]
TCL: Setting parameter firsttimestep to 0
TCL: Setting parameter alchLambda to 0.44999999999999996
Info: NONBONDED TABLE R-SQUARED SPACING: 0.0625
Info: NONBONDED TABLE SIZE: 705 POINTS
TCL: Setting parameter alchLambda2 to 0.49999999999999994
Info: NONBONDED TABLE R-SQUARED SPACING: 0.0625
Info: NONBONDED TABLE SIZE: 705 POINTS
TCL: Running for 1500000 steps
ETITLE: TS BOND ANGLE DIHED IMPRP ELECT VDW BOUNDARY MISC KINETIC TOTAL TEMP POTENTIAL TOTALAVG TEMPAVG PRESSURE GPRESSURE VOLUME PRESSAVG GPRESSAVG
ENERGY: 0 2.5539 12.1536 12.7927 0.0000 -10565.4465 1410.8460 0.0000 0.0000 1750.9047 -7376.1955 298.8790 -9127.1001 -7376.1955 298.8790 -355.2313 -263.8857 30776.9274 -355.2313 -263.8857
ENERGY: 300000 6.3682 15.4944 15.6374 0.0000 -10660.7060 1453.3640 0.0000 0.0000 1777.2654 -7392.5766 303.3788 -9169.8420 -7350.4289 301.3347 550.1553 592.7075 29542.6094 109.3832 179.1275
ENERGY: 600000 4.3845 14.8959 14.3938 0.0000 -10569.5238 1481.4249 0.0000 0.0000 1776.6943 -7277.7304 303.2813 -9054.4247 -7353.5301 301.7493 631.2654 746.5504 30108.4176 121.3183 193.7855
ENERGY: 900000 3.6297 9.3834 11.4958 0.0000 -10705.4155 1481.9420 0.0000 0.0000 1768.7558 -7430.2088 301.9262 -9198.9645 -7362.5157 300.8492 236.8190 391.4540 29937.7468 130.8448 204.7177
ENERGY: 1200000 3.8407 20.1283 12.0217 0.0000 -10622.2120 1440.6164 0.0000 0.0000 1737.6766 -7407.9282 296.6210 -9145.6048 -7364.2352 299.9333 -122.1622 -45.6515 30076.9759 123.2657 190.9340
ENERGY: 1500000 1.3707 11.5348 11.1319 0.0000 -10576.7667 1437.1344 0.0000 0.0000 1773.0542 -7342.5407 302.6599 -9115.5949 -7362.1213 299.7373 136.9781 169.5050 30209.8991 68.8171 133.4979
TCL: Running FEP window  11: Lambda1 0.49999999999999994 Lambda2 0.5499999999999999 [dLambda 0.04999999999999999]
TCL: Setting parameter firsttimestep to 0
TCL: Setting parameter alchLambda to 0.49999999999999994
Info: NONBONDED TABLE R-SQUARED SPACING: 0.0625
Info: NONBONDED TABLE SIZE: 705 POINTS
TCL: Setting parameter alchLambda2 to 0.5499999999999999
Info: NONBONDED TABLE R-SQUARED SPACING: 0.0625
Info: NONBONDED TABLE SIZE: 705 POINTS
TCL: Running for 1500000 steps
ETITLE: TS BOND ANGLE DIHED IMPRP ELECT VDW BOUNDARY MISC KINETIC TOTAL TEMP POTENTIAL TOTALAVG TEMPAVG PRESSURE GPRESSURE VOLUME PRESSAVG GPRESSAVG
ENERGY: 0 1.3707 11.5347 11.1319 0.0000 -10576.7676 1437.1957 0.0000 0.0000 1772.1639 -7343.3707 302.5079 -9115.5346 -7343.3707 302.5079 89.4609 177.5303 30209.8991 89.4609 177.5303
ENERGY: 300000 3.7371 11.7416 9.7407 0.0000 -10529.0955 1429.0103 0.0000 0.0000 1700.1523 -7374.7135 290.2156 -9074.8658 -7347.4522 300.7828 -30.4155 48.1147 30357.5514 -76.4522 3.8334
ENERGY: 600000 3.8208 17.4422 9.1287 0.0000 -10553.6777 1444.7581 0.0000 0.0000 1854.4875 -7224.0404 316.5606 -9078.5279 -7335.4494 302.9492 639.7965 638.5055 29652.9845 70.6788 119.2108
ENERGY: 900000 7.9200 14.1638 13.7116 0.0000 -10592.7926 1388.2767 0.0000 0.0000 1737.3337 -7431.3868 296.5625 -9168.7205 -7351.3343 301.9416 -345.4562 -336.6434 29963.0778 59.3378 110.1343
ENERGY: 1200000 7.4494 13.7403 12.7926 0.0000 -10612.3262 1455.3665 0.0000 0.0000 1731.8382 -7391.1392 295.6244 -9122.9774 -7357.0815 301.7629 107.2062 218.1533 30134.7522 -48.9811 8.4183
ENERGY: 1500000 4.2734 10.1663 13.0047 0.0000 -10666.3601 1564.0760 0.0000 0.0000 1751.9477 -7322.8920 299.0570 -9074.8397 -7363.2989 301.4105 1047.7802 1133.9713 30614.4660 8.9431 64.5241
TCL: Running FEP window  12: Lambda1 0.5499999999999999 Lambda2 0.6    [dLambda 0.050000000000000044]
TCL: Setting parameter firsttimestep to 0
TCL: Setting parameter alchLambda to 0.5499999999999999
Info: NONBONDED TABLE R-SQUARED SPACING: 0.0625
Info: NONBONDED TABLE SIZE: 705 POINTS
TCL: Setting parameter alchLambda2 to 0.6
Info: NONBONDED TABLE R-SQUARED SPACING: 0.0625
Info: NONBONDED TABLE SIZE: 705 POINTS
TCL: Running for 1500000 steps
ETITLE: TS BOND ANGLE DIHED IMPRP ELECT VDW BOUNDARY MISC KINETIC TOTAL TEMP POTENTIAL TOTALAVG TEMPAVG PRESSURE GPRESSURE VOLUME PRESSAVG GPRESSAVG
ENERGY: 0 4.2734 10.1663 13.0047 0.0000 -10665.5794 1564.0450 0.0000 0.0000 1751.0634 -7323.0266 298.9061 -9074.0901 -7323.0266 298.9061 1074.3828 1145.3676 30614.4660 1074.3828 1145.3676
ENERGY: 300000 3.5178 18.9574 15.3407 0.0000 -10631.7407 1464.1629 0.0000 0.0000 1760.1897 -7369.5722 300.4640 -9129.7619 -7337.8970 300.0374 167.0246 240.1866 30308.4407 474.9350 561.4488
ENERGY: 600000 4.3542 15.0027 11.1235 0.0000 -10601.0081 1419.8307 0.0000 0.0000 1747.8166 -7402.8804 298.3519 -9150.6970 -7340.1878 300.9784 -100.0729 15.9090 30098.8311 338.0342 418.1598
ENERGY: 900000 5.1906 9.2725 12.0259 0.0000 -10495.9184 1369.3803 0.0000 0.0000 1692.0555 -7407.9934 288.8335 -9100.0490 -7347.2608 299.9064 -659.7135 -535.4516 30202.9633 94.3521 183.3510
ENERGY: 1200000 4.8172 16.8796 15.4254 0.0000 -10543.1908 1434.2046 0.0000 0.0000 1772.7540 -7299.1100 302.6087 -9071.8640 -7345.1855 299.9323 97.1485 123.4743 30365.1528 -2.2078 70.8153
ENERGY: 1500000 4.9537 16.6283 13.0638 0.0000 -10556.6311 1424.0572 0.0000 0.0000 1793.3046 -7304.6234 306.1167 -9097.9281 -7353.6355 299.5946 -170.8839 -92.9548 30253.5892 -57.4219 13.5324
TCL: Running FEP window  13: Lambda1 0.6    Lambda2 0.65   [dLambda 0.050000000000000044]
TCL: Setting parameter firsttimestep to 0
TCL: Setting parameter alchLambda to 0.6
Info: NONBONDED TABLE R-SQUARED SPACING: 0.0625
Info: NONBONDED TABLE SIZE: 705 POINTS
TCL: Setting parameter alchLambda2 to 0.65
Info: NONBONDED TABLE R-SQUARED SPACING: 0.0625
Info: NONBONDED TABLE SIZE: 705 POINTS
TCL: Running for 1500000 steps
ETITLE: TS BOND ANGLE DIHED IMPRP ELECT VDW BOUNDARY MISC KINETIC TOTAL TEMP POTENTIAL TOTALAVG TEMPAVG PRESSURE GPRESSURE VOLUME PRESSAVG GPRESSAVG
ENERGY: 0 4.9537 16.6283 13.0638 0.0000 -10557.6609 1424.2550 0.0000 0.0000 1792.4233 -7306.3369 305.9662 -9098.7601 -7306.3369 305.9662 -154.2338 -85.5420 30253.5892 -154.2338 -85.5420
ENERGY: 300000 5.9447 12.6980 9.4187 0.0000 -10669.5126 1433.2380 0.0000 0.0000 1788.7775 -7419.4357 305.3439 -9208.2132 -7327.9538 303.6892 -357.9436 -287.6486 30501.5218 -228.6003 -156.9595
ENERGY: 600000 3.5935 10.2498 11.8209 0.0000 -10495.1430 1368.9005 0.0000 0.0000 1774.0785 -7326.4996 302.8348 -9100.5782 -7298.6041 303.7383 -246.1738 -182.2502 30148.7011 -315.0405 -242.9793
ENERGY: 900000 1.7191 13.0430 13.6666 0.0000 -10601.2516 1416.1909 0.0000 0.0000 1798.1309 -7358.5011 306.9405 -9156.6320 -7319.7404 303.9967 86.4507 58.3689 29869.2929 -235.3772 -181.0153
ENERGY: 1200000 3.5542 9.9065 14.9902 0.0000 -10650.2270 1481.0931 0.0000 0.0000 1813.8811 -7326.8019 309.6291 -9140.6830 -7331.7963 303.7369 301.8723 366.3969 30336.1403 -146.6949 -99.1583
ENERGY: 1500000 2.8544 13.3993 17.9433 0.0000 -10619.5430 1429.9646 0.0000 0.0000 1754.4030 -7400.9784 299.4762 -9155.3814 -7333.7956 303.5543 -112.4019 -51.2328 30429.2599 -148.0893 -97.4536
TCL: Running FEP window  14: Lambda1 0.65   Lambda2 0.7000000000000001 [dLambda 0.050000000000000044]
TCL: Setting parameter firsttimestep to 0
TCL: Setting parameter alchLambda to 0.65
Info: NONBONDED TABLE R-SQUARED SPACING: 0.0625
Info: NONBONDED TABLE SIZE: 705 POINTS
TCL: Setting parameter alchLambda2 to 0.7000000000000001
Info: NONBONDED TABLE R-SQUARED SPACING: 0.0625
Info: NONBONDED TABLE SIZE: 705 POINTS
TCL: Running for 1500000 steps
ETITLE: TS BOND ANGLE DIHED IMPRP ELECT VDW BOUNDARY MISC KINETIC TOTAL TEMP POTENTIAL TOTALAVG TEMPAVG PRESSURE GPRESSURE VOLUME PRESSAVG GPRESSAVG
ENERGY: 0 2.8544 13.3993 17.9433 0.0000 -10619.8051 1429.9240 0.0000 0.0000 1753.5492 -7402.1351 299.3304 -9155.6842 -7402.1351 299.3304 -115.3532 -42.9734 30429.2599 -115.3532 -42.9734
ENERGY: 300000 4.1164 8.7867 11.5494 0.0000 -10650.0369 1422.9773 0.0000 0.0000 1806.5791 -7396.0281 308.3826 -9202.6071 -7379.9712 303.7169 12.0546 157.9478 29554.7083 101.4600 211.0126
ENERGY: 600000 5.5825 12.3472 11.8123 0.0000 -10538.4885 1411.6591 0.0000 0.0000 1734.2053 -7362.8821 296.0284 -9097.0874 -7391.4243 301.2762 -160.1032 -107.4984 30474.6284 109.5062 183.1819
ENERGY: 900000 3.8262 14.6154 11.8838 0.0000 -10705.1981 1477.6361 0.0000 0.0000 1745.1236 -7452.1129 297.8922 -9197.2365 -7391.0510 301.2164 209.8932 271.2978 29952.8267 89.6756 166.6726
ENERGY: 1200000 7.1105 13.9067 12.3046 0.0000 -10494.2455 1351.6895 0.0000 0.0000 1773.2608 -7335.9733 302.6952 -9109.2342 -7390.5352 300.2636 -627.8934 -560.4216 30166.4152 -18.6268 58.1782
ENERGY: 1500000 2.2364 11.9310 12.1099 0.0000 -10591.9100 1452.9110 0.0000 0.0000 1791.5639 -7321.1578 305.8195 -9112.7217 -7385.7261 300.7197 357.1195 350.5182 30184.0858 -1.1806 60.6404
TCL: Running FEP window  15: Lambda1 0.7000000000000001 Lambda2 0.7500000000000001 [dLambda 0.050000000000000044]
TCL: Setting parameter firsttimestep to 0
TCL: Setting parameter alchLambda to 0.7000000000000001
Info: NONBONDED TABLE R-SQUARED SPACING: 0.0625
Info: NONBONDED TABLE SIZE: 705 POINTS
TCL: Setting parameter alchLambda2 to 0.7500000000000001
Info: NONBONDED TABLE R-SQUARED SPACING: 0.0625
Info: NONBONDED TABLE SIZE: 705 POINTS
TCL: Running for 1500000 steps
ETITLE: TS BOND ANGLE DIHED IMPRP ELECT VDW BOUNDARY MISC KINETIC TOTAL TEMP POTENTIAL TOTALAVG TEMPAVG PRESSURE GPRESSURE VOLUME PRESSAVG GPRESSAVG
ENERGY: 0 2.2364 11.9310 12.1099 0.0000 -10594.4140 1453.1048 0.0000 0.0000 1790.7010 -7324.3310 305.6722 -9115.0320 -7324.3310 305.6722 279.6967 358.1195 30184.0858 279.6967 358.1195
ENERGY: 300000 6.9866 12.8831 13.3848 0.0000 -10511.3372 1381.3622 0.0000 0.0000 1836.6225 -7260.0979 313.5110 -9096.7204 -7339.2340 303.4053 -395.3781 -366.6533 30266.9004 243.1488 316.8018
ENERGY: 600000 2.1726 15.5744 14.7914 0.0000 -10586.4441 1388.1322 0.0000 0.0000 1745.7428 -7420.0307 297.9979 -9165.7734 -7341.0889 301.0828 -15.9372 59.0861 29653.0373 -8.5865 59.2241
ENERGY: 900000 3.2505 9.2253 12.2922 0.0000 -10582.0507 1478.7477 0.0000 0.0000 1727.1612 -7351.3738 294.8260 -9078.5350 -7354.1563 298.7198 248.9111 378.7395 30201.1281 4.6033 76.8879
ENERGY: 1200000 3.6892 15.0204 11.9447 0.0000 -10512.6176 1381.0573 0.0000 0.0000 1798.0375 -7302.8684 306.9246 -9100.9059 -7354.6337 299.5289 -364.5029 -262.8050 30594.0151 -122.1358 -52.4844
ENERGY: 1500000 2.3951 13.9112 11.3398 0.0000 -10596.8818 1437.7895 0.0000 0.0000 1750.9590 -7380.4872 298.8883 -9131.4462 -7366.1583 299.6817 -49.0604 -90.6779 30595.3320 -124.2138 -61.9099
TCL: Running FEP window  16: Lambda1 0.7500000000000001 Lambda2 0.8000000000000002 [dLambda 0.050000000000000044]
TCL: Setting parameter firsttimestep to 0
TCL: Setting parameter alchLambda to 0.7500000000000001
Info: NONBONDED TABLE R-SQUARED SPACING: 0.0625
Info: NONBONDED TABLE SIZE: 705 POINTS
TCL: Setting parameter alchLambda2 to 0.8000000000000002
Info: NONBONDED TABLE R-SQUARED SPACING: 0.0625
Info: NONBONDED TABLE SIZE: 705 POINTS
TCL: Running for 1500000 steps
ETITLE: TS BOND ANGLE DIHED IMPRP ELECT VDW BOUNDARY MISC KINETIC TOTAL TEMP POTENTIAL TOTALAVG TEMPAVG PRESSURE GPRESSURE VOLUME PRESSAVG GPRESSAVG
ENERGY: 0 2.3951 13.9112 11.3398 0.0000 -10599.2705 1438.7114 0.0000 0.0000 1750.0391 -7382.8741 298.7312 -9132.9131 -7382.8741 298.7312 -146.1610 -73.4004 30595.3320 -146.1610 -73.4004
ENERGY: 300000 8.4506 9.0161 14.0483 0.0000 -10627.3552 1424.5597 0.0000 0.0000 1756.0591 -7415.2213 299.7589 -9171.2804 -7346.8317 300.0760 -82.6169 -23.8013 29693.8340 13.9225 96.5347
ENERGY: 600000 2.9523 12.2019 12.0214 0.0000 -10544.1479 1373.8736 0.0000 0.0000 1747.9213 -7395.1773 298.3697 -9143.0987 -7361.0729 300.3452 -407.2182 -370.3529 30213.3612 -57.8162 7.9592
ENERGY: 900000 4.5992 12.2205 12.3514 0.0000 -10517.1797 1376.1305 0.0000 0.0000 1760.0571 -7351.8210 300.4413 -9111.8781 -7370.2215 300.6414 -624.3515 -473.1400 30295.7548 -151.3474 -73.1327
ENERGY: 1200000 1.6654 12.5812 13.5374 0.0000 -10455.9111 1387.6327 0.0000 0.0000 1692.1851 -7348.3093 288.8556 -9040.4944 -7372.3105 298.7453 -67.4017 -54.2445 30193.2467 -104.9756 -35.3883
ENERGY: 1500000 1.2160 12.7270 11.1114 0.0000 -10527.0240 1397.4890 0.0000 0.0000 1797.9524 -7306.5281 306.9100 -9104.4805 -7365.9869 299.9120 -191.2140 -116.5107 30659.8569 -68.2110 1.8149
TCL: Running FEP window  17: Lambda1 0.8000000000000002 Lambda2 0.8500000000000002 [dLambda 0.050000000000000044]
TCL: Setting parameter firsttimestep to 0
TCL: Setting parameter alchLambda to 0.8000000000000002
Info: NONBONDED TABLE R-SQUARED SPACING: 0.0625
Info: NONBONDED TABLE SIZE: 705 POINTS
TCL: Setting parameter alchLambda2 to 0.8500000000000002
Info: NONBONDED TABLE R-SQUARED SPACING: 0.0625
Info: NONBONDED TABLE SIZE: 705 POINTS
TCL: Running for 1500000 steps
ETITLE: TS BOND ANGLE DIHED IMPRP ELECT VDW BOUNDARY MISC KINETIC TOTAL TEMP POTENTIAL TOTALAVG TEMPAVG PRESSURE GPRESSURE VOLUME PRESSAVG GPRESSAVG
ENERGY: 0 1.2160 12.7270 11.1114 0.0000 -10533.6667 1400.8228 0.0000 0.0000 1797.0606 -7310.7288 306.7578 -9107.7894 -7310.7288 306.7578 -176.2013 -91.4339 30659.8569 -176.2013 -91.4339
ENERGY: 300000 4.5239 16.2927 13.4812 0.0000 -10405.1002 1287.1849 0.0000 0.0000 1787.2704 -7296.3470 305.0866 -9083.6174 -7333.5063 300.5093 -1466.1247 -1382.2287 31085.0393 -468.5083 -397.5440
ENERGY: 600000 2.8029 14.8720 11.4914 0.0000 -10644.4805 1419.6593 0.0000 0.0000 1793.8709 -7401.7841 306.2133 -9195.6551 -7325.3685 302.1249 -115.4278 11.9911 30006.1899 -319.7990 -242.5102
ENERGY: 900000 2.3237 15.8517 13.2932 0.0000 -10578.5807 1418.4705 0.0000 0.0000 1705.8651 -7422.7764 291.1908 -9128.6415 -7338.4760 301.7534 -299.6322 -231.0074 30628.6466 -169.9214 -96.6374
ENERGY: 1200000 4.9197 15.6813 11.8441 0.0000 -10552.6889 1386.5447 0.0000 0.0000 1752.0597 -7381.6394 299.0762 -9133.6991 -7355.2221 300.5003 -349.8681 -306.0084 30202.9397 -82.8644 -14.4132
ENERGY: 1500000 2.9568 14.8413 13.0649 0.0000 -10652.6956 1566.3078 0.0000 0.0000 1768.2330 -7287.2919 301.8369 -9055.5248 -7355.6897 300.0560 1054.8283 1119.2820 30503.1985 -8.2864 66.3272
TCL: Running FEP window  18: Lambda1 0.8500000000000002 Lambda2 0.9000000000000002 [dLambda 0.050000000000000044]
TCL: Setting parameter firsttimestep to 0
TCL: Setting parameter alchLambda to 0.8500000000000002
Info: NONBONDED TABLE R-SQUARED SPACING: 0.0625
Info: NONBONDED TABLE SIZE: 705 POINTS
TCL: Setting parameter alchLambda2 to 0.9000000000000002
Info: NONBONDED TABLE R-SQUARED SPACING: 0.0625
Info: NONBONDED TABLE SIZE: 705 POINTS
TCL: Running for 1500000 steps
ETITLE: TS BOND ANGLE DIHED IMPRP ELECT VDW BOUNDARY MISC KINETIC TOTAL TEMP POTENTIAL TOTALAVG TEMPAVG PRESSURE GPRESSURE VOLUME PRESSAVG GPRESSAVG
ENERGY: 0 2.9568 14.8412 13.0649 0.0000 -10658.4945 1571.2559 0.0000 0.0000 1767.3857 -7288.9900 301.6923 -9056.3756 -7288.9900 301.6923 1069.6859 1164.7904 30503.1985 1069.6859 1164.7904
ENERGY: 300000 1.2148 10.2583 11.4631 0.0000 -10586.3892 1428.4790 0.0000 0.0000 1772.8423 -7362.1317 302.6238 -9134.9740 -7346.9778 301.0074 -134.7713 -13.2818 30410.4796 359.6317 440.7429
ENERGY: 600000 9.8431 15.1506 12.7820 0.0000 -10478.0343 1313.1894 0.0000 0.0000 1747.7401 -7379.3291 298.3388 -9127.0692 -7377.7058 299.4164 -1190.6564 -1194.3075 30503.2202 -4.2558 50.6963
ENERGY: 900000 4.6412 13.9883 13.2928 0.0000 -10553.0899 1429.8091 0.0000 0.0000 1772.5529 -7318.8056 302.5744 -9091.3585 -7375.3954 298.4232 152.4546 212.9955 30296.7204 -23.1832 32.2666
ENERGY: 1200000 6.1544 12.2038 17.7766 0.0000 -10452.5299 1313.1476 0.0000 0.0000 1784.6314 -7318.6161 304.6361 -9103.2475 -7376.4396 298.8508 -1086.4855 -1047.1647 30613.5578 -203.7867 -145.9316
ENERGY: 1500000 3.4947 12.7336 12.4496 0.0000 -10663.7617 1520.9092 0.0000 0.0000 1744.5453 -7369.6294 297.7935 -9114.1747 -7375.5496 299.3105 1099.9219 1120.3401 29802.4722 -42.6351 11.8238
TCL: Running FEP window  19: Lambda1 0.9000000000000002 Lambda2 0.9500000000000003 [dLambda 0.050000000000000044]
TCL: Setting parameter firsttimestep to 0
TCL: Setting parameter alchLambda to 0.9000000000000002
Info: NONBONDED TABLE R-SQUARED SPACING: 0.0625
Info: NONBONDED TABLE SIZE: 705 POINTS
TCL: Setting parameter alchLambda2 to 0.9500000000000003
Info: NONBONDED TABLE R-SQUARED SPACING: 0.0625
Info: NONBONDED TABLE SIZE: 705 POINTS
TCL: Running for 1500000 steps
ETITLE: TS BOND ANGLE DIHED IMPRP ELECT VDW BOUNDARY MISC KINETIC TOTAL TEMP POTENTIAL TOTALAVG TEMPAVG PRESSURE GPRESSURE VOLUME PRESSAVG GPRESSAVG
ENERGY: 0 3.4947 12.7336 12.4496 0.0000 -10669.2548 1523.8858 0.0000 0.0000 1743.6859 -7373.0051 297.6468 -9116.6911 -7373.0051 297.6468 1085.6093 1154.4726 29802.4722 1085.6093 1154.4726
ENERGY: 300000 2.9321 18.4017 11.4572 0.0000 -10581.5081 1424.7794 0.0000 0.0000 1715.5879 -7408.3498 292.8504 -9123.9378 -7385.7478 299.2617 -141.8075 -48.0450 30398.8187 -70.1237 8.0190
ENERGY: 600000 7.0941 8.1917 11.4078 0.0000 -10761.2293 1517.3020 0.0000 0.0000 1756.4600 -7460.7737 299.8273 -9217.2337 -7402.5532 298.6182 360.4683 397.1171 30137.0245 -45.2910 33.7562
ENERGY: 900000 3.8296 9.5524 11.2542 0.0000 -10494.9407 1448.3289 0.0000 0.0000 1799.4890 -7222.4865 307.1723 -9021.9755 -7393.7609 298.0967 385.5520 451.8846 30617.9513 -77.0648 -6.4267
ENERGY: 1200000 3.7682 14.0676 16.0958 0.0000 -10552.4483 1420.4026 0.0000 0.0000 1815.0543 -7283.0596 309.8293 -9098.1140 -7379.2458 300.2613 178.6419 198.7135 30292.0630 -6.5383 58.6614
ENERGY: 1500000 6.4080 11.9165 9.8424 0.0000 -10601.9811 1429.8043 0.0000 0.0000 1720.4242 -7423.5858 293.6760 -9144.0100 -7382.9679 299.9257 -141.9442 -3.8705 30233.0132 -62.8665 11.6018
TCL: Running FEP window  20: Lambda1 0.9500000000000003 Lambda2 1.0    [dLambda 0.04999999999999971]
TCL: Setting parameter firsttimestep to 0
TCL: Setting parameter alchLambda to 0.9500000000000003
Info: NONBONDED TABLE R-SQUARED SPACING: 0.0625
Info: NONBONDED TABLE SIZE: 705 POINTS
TCL: Setting parameter alchLambda2 to 1.0
Info: NONBONDED TABLE R-SQUARED SPACING: 0.0625
Info: NONBONDED TABLE SIZE: 705 POINTS
TCL: Running for 1500000 steps
ETITLE: TS BOND ANGLE DIHED IMPRP ELECT VDW BOUNDARY MISC KINETIC TOTAL TEMP POTENTIAL TOTALAVG TEMPAVG PRESSURE GPRESSURE VOLUME PRESSAVG GPRESSAVG
ENERGY: 0 6.4079 11.9165 9.8424 0.0000 -10606.6994 1432.3131 0.0000 0.0000 1719.5535 -7426.6659 293.5274 -9146.2194 -7426.6659 293.5274 -55.5769 31.2048 30233.0132 -55.5769 31.2048
ENERGY: 300000 3.2107 12.2391 14.5526 0.0000 -10519.4322 1434.6006 0.0000 0.0000 1781.1749 -7273.6543 304.0461 -9054.8292 -7367.5988 299.5412 48.9411 97.2829 30815.6793 216.7582 257.3221
ENERGY: 600000 4.0961 9.9986 12.0154 0.0000 -10435.0213 1327.5489 0.0000 0.0000 1730.7034 -7350.6588 295.4307 -9081.3622 -7365.6777 299.8535 -587.0154 -507.6333 30312.8121 -54.1172 -0.9788
ENERGY: 900000 5.9114 10.3496 14.5137 0.0000 -10647.9259 1438.1461 0.0000 0.0000 1734.2285 -7444.7766 296.0324 -9179.0051 -7381.6102 300.0380 -1.8806 4.6301 30227.8155 -169.4315 -115.0929
ENERGY: 1200000 4.3267 9.8024 15.3350 0.0000 -10522.8963 1345.2947 0.0000 0.0000 1715.2593 -7432.8782 292.7943 -9148.1375 -7386.4128 299.5752 -627.1902 -577.3337 30026.9874 -176.1103 -122.6287
ENERGY: 1500000 5.5021 7.2829 12.5569 0.0000 -10529.3908 1385.9095 0.0000 0.0000 1741.0683 -7377.0710 297.1999 -9118.1393 -7386.8959 299.9508 -48.0060 -4.2230 30071.6494 -143.3574 -90.1937
TCL: Exiting due to exit command.
