Info: SIMULATION PARAMETERS:
Info: TIMESTEP               2
Info: NUMBER OF STEPS        0
Info: STEPS PER CYCLE        10
Info: PERIODIC CELL BASIS 1  28.4168 0 0
Info: PERIODIC CELL BASIS 2  0 32.2444 0
Info: PERIODIC CELL BASIS 3  0 0 32.9842
Info: PERIODIC CELL CENTER   0 0 0
Info: WRAPPING WATERS AROUND PERIODIC BOUNDARIES ON OUTPUT.
Info: WRAPPING ALL CLUSTERS AROUND PERIODIC BOUNDARIES ON OUTPUT.
Info: FIRST LDB TIMESTEP     50
Info: LAST LDB TIMESTEP     -1
Info: HOM BACKGROUND SCALING 1
Info: PME BACKGROUND SCALING 1
Info: MIN ATOMS PER PATCH    40
Info: EMPTY PATCH LOAD       40 ATOMS
Info: VELOCITY FILE          mobley_3151666_equil.vel
Info: CENTER OF MASS MOVING INITIALLY? NO
Info: DIELECTRIC             1
Info: EXCLUDE                SCALED ONE-FOUR
Info: 1-4 ELECTROSTATICS SCALED BY 0.833333
Info: MODIFIED 1-4 VDW PARAMETERS WILL BE USED
Info: DCD FILENAME           mobley_3151666_prod.dcd
Info: DCD FREQUENCY          100000
Info: DCD FIRST STEP         100000
Info: DCD FILE WILL CONTAIN UNIT CELL DATA
Info: XST FILENAME           mobley_3151666_prod.xst
Info: XST FREQUENCY          100000
Info: NO VELOCITY DCD OUTPUT
Info: NO FORCE DCD OUTPUT
Info: OUTPUT FILENAME        mobley_3151666_prod
Info: BINARY OUTPUT FILES WILL BE USED
Info: RESTART FILENAME       mobley_3151666_prod.restart
Info: RESTART FREQUENCY      100000
Info: BINARY RESTART FILES WILL BE USED
Info: CUTOFF                 9
Info: PAIRLIST DISTANCE      11
Info: PAIRLIST SHRINK RATE   0.01
Info: PAIRLIST GROW RATE     0.01
Info: PAIRLIST TRIGGER       0.3
Info: PAIRLISTS PER CYCLE    2
Info: PAIRLISTS ENABLED
Info: MARGIN                 2
Info: HYDROGEN GROUP CUTOFF  2.5
Info: PATCH DIMENSION        15.5
Info: ENERGY OUTPUT STEPS    100000
Info: ENERGY EVALUATION STEPS    100000
Info: OUTPUT ENERGY PRECISION 4
Info: CROSSTERM ENERGY INCLUDED IN DIHEDRAL
Info: TIMING OUTPUT STEPS    1000000
Info: PRESSURE OUTPUT STEPS  100000
Info: ALCHEMICAL FEP ON
Info: FEP CURRENT LAMBDA VALUE     1
Info: FEP COMPARISON LAMBDA VALUE  0.95
Info: FEP INTRA-ALCHEMICAL NON-BONDED INTERACTIONS WILL BE RETAINED
Info: FEP INTRA-ALCHEMICAL BONDED INTERACTIONS WILL BE RETAINED
Info: FEP VDW SHIFTING COEFFICIENT 5
Info: FEP ELEC. ACTIVE FOR ANNIHILATED PARTICLES BETWEEN LAMBDA = 0 AND LAMBDA = 0.5
Info: FEP ELEC. ACTIVE FOR EXNIHILATED PARTICLES BETWEEN LAMBDA = 0.5 AND LAMBDA = 1
Info: FEP VDW ACTIVE FOR ANNIHILATED PARTICLES BETWEEN LAMBDA = 0 AND LAMBDA = 1
Info: FEP VDW ACTIVE FOR EXNIHILATED PARTICLES BETWEEN LAMBDA = 0 AND LAMBDA = 1
Info: FEP BOND ACTIVE FOR ANNIHILATED PARTICLES BETWEEN LAMBDA = 1 AND LAMBDA = 1
Info: FEP BOND ACTIVE FOR EXNIHILATED PARTICLES BETWEEN LAMBDA = 0 AND LAMBDA = 0
Info: LANGEVIN DYNAMICS ACTIVE
Info: LANGEVIN TEMPERATURE   300
Info: LANGEVIN USING BBK INTEGRATOR
Info: LANGEVIN DAMPING COEFFICIENT IS 1 INVERSE PS
Info: LANGEVIN DYNAMICS APPLIED TO HYDROGENS
Info: LANGEVIN PISTON PRESSURE CONTROL ACTIVE
Info:        TARGET PRESSURE IS 1.01325 BAR
Info:     OSCILLATION PERIOD IS 50 FS
Info:             DECAY TIME IS 25 FS
Info:     PISTON TEMPERATURE IS 300 K
Info:       PRESSURE CONTROL IS GROUP-BASED
Info:    INITIAL STRAIN RATE IS -0.000497041 -0.000497041 -0.000497041
Info:       CELL FLUCTUATION IS ISOTROPIC
Info: PARTICLE MESH EWALD (PME) ACTIVE
Info: PME TOLERANCE               1e-06
Info: PME EWALD COEFFICIENT       0.348832
Info: PME INTERPOLATION ORDER     4
Info: PME GRID DIMENSIONS         32 36 36
Info: PME MAXIMUM GRID SPACING    1
Info: PME CALCULATION WILL BE PERFORMED ON GPU
Info: FULL ELECTROSTATIC EVALUATION FREQUENCY      2
Info: USING VERLET I (r-RESPA) MTS SCHEME.
Info: C1 SPLITTING OF LONG RANGE ELECTROSTATICS
Info: PLACING ATOMS IN PATCHES BY HYDROGEN GROUPS
Info: RIGID BONDS TO HYDROGEN : ALL
Info:         ERROR TOLERANCE : 1e-08
Info:          MAX ITERATIONS : 100
Info: RIGID WATER USING SETTLE ALGORITHM
Info: RANDOM NUMBER SEED     1744097120
Info: USE HYDROGEN BONDS?    NO
Info: Using AMBER format force field!
Info: AMBER PARM FILE        mobley_3151666.prmtop
Info: COORDINATE PDB         mobley_3151666.pdb
Info: Exclusions will be read from PARM file!
Info: SCNB (VDW SCALING)     2
Info: USING ARITHMETIC MEAN TO COMBINE L-J SIGMA PARAMETERS
Info: BINARY COORDINATES     mobley_3151666_equil.coor
Info: SUMMARY OF PARAMETERS:
Info: 7 BONDS
Info: 8 ANGLES
Info:   8 HARMONIC
Info:   0 COSINE-BASED
Info: 9 DIHEDRAL
Info: 0 IMPROPER
Info: 0 CROSSTERM
Info: 0 VDW
Info: 21 VDW_PAIRS
Info: 0 NBTHOLE_PAIRS
Info: To read alchdata from file: mobley_3151666.pdb
Info: To read alchflag data from column: 5
Info: STRUCTURE SUMMARY:
Info: 2937 ATOMS
Info: 2936 BONDS
Info: 61 ANGLES
Info: 101 DIHEDRALS
Info: 0 IMPROPERS
Info: 0 CROSSTERMS
Info: 3081 EXCLUSIONS
Info: 2926 RIGID BONDS
Info: ALCH: 0 ATOMS TO DISAPPEAR IN FINAL STATE
Info: ALCH: 33 ATOMS TO APPEAR IN FINAL STATE
Info: 5885 DEGREES OF FREEDOM
Info: 979 HYDROGEN GROUPS
Info: 4 ATOMS IN LARGEST HYDROGEN GROUP
Info: 979 MIGRATION GROUPS
Info: 4 ATOMS IN LARGEST MIGRATION GROUP
Info: TOTAL MASS = 17597.8 amu
Info: TOTAL CHARGE = 0.000200033 e
Info: MASS DENSITY = 0.9669 g/cm^3
Info: ATOM DENSITY = 0.0971781 atoms/A^3
Info: ADDED 0 IMPLICIT EXCLUSIONS
Info: NONBONDED TABLE R-SQUARED SPACING: 0.0625
Info: NONBONDED TABLE SIZE: 705 POINTS
Info: REMOVING COM VELOCITY 0.0514493 0.0566933 0.108494
Info: Use 3D box decompostion in PME FFT.
Info: Updated CUDA force table with 4096 elements.
Info: Updated CUDA LJ table with 6 x 6 elements.
Info: Found 36 unique exclusion lists needing 160 bytes
TCL: Running for 1500000 steps
ETITLE: TS BOND ANGLE DIHED IMPRP ELECT VDW BOUNDARY MISC KINETIC TOTAL TEMP POTENTIAL TOTALAVG TEMPAVG PRESSURE GPRESSURE VOLUME PRESSAVG GPRESSAVG
ENERGY: 0 1.8862 14.3348 7.4935 0.0000 -10609.6004 1469.9137 0.0000 0.0000 1731.5286 -7384.4436 296.1240 -9115.9722 -7384.4436 296.1240 427.8712 499.4672 30222.8446 427.8712 499.4672
ENERGY: 300000 8.1109 17.9271 6.9275 0.0000 -10628.0466 1438.2102 0.0000 0.0000 1743.9572 -7412.9138 298.2495 -9156.8710 -7405.1852 296.5232 -50.7226 33.5722 29928.3610 121.4057 201.5278
ENERGY: 600000 2.5642 16.8877 7.1449 0.0000 -10667.1653 1469.7837 0.0000 0.0000 1747.3797 -7423.4051 298.8348 -9170.7848 -7409.7825 297.1753 629.1551 634.8914 29851.9406 170.0334 223.0663
ENERGY: 900000 2.7744 13.4369 9.3218 0.0000 -10660.5076 1390.1115 0.0000 0.0000 1767.2777 -7477.5853 302.2378 -9244.8631 -7411.4583 298.1428 -285.4469 -246.9972 29716.2978 84.9195 129.3796
ENERGY: 1200000 1.6529 15.9268 7.4363 0.0000 -10600.2531 1465.1751 0.0000 0.0000 1722.9559 -7387.1061 294.6579 -9110.0619 -7399.5761 298.3617 355.7823 443.7381 30394.0170 62.3182 119.5578
ENERGY: 1500000 3.6625 20.2932 9.3866 0.0000 -10358.6901 1326.6827 0.0000 0.0000 1733.3403 -7265.3248 296.4338 -8998.6651 -7394.8750 298.4270 -477.5254 -462.8363 30714.8704 35.7494 100.4920
TCL: Running FEP window   2: Lambda1 0.95   Lambda2 0.8999999999999999 [dLambda -0.050000000000000044]
TCL: Setting parameter firsttimestep to 0
TCL: Setting parameter alchLambda to 0.95
Info: NONBONDED TABLE R-SQUARED SPACING: 0.0625
Info: NONBONDED TABLE SIZE: 705 POINTS
TCL: Setting parameter alchLambda2 to 0.8999999999999999
Info: NONBONDED TABLE R-SQUARED SPACING: 0.0625
Info: NONBONDED TABLE SIZE: 705 POINTS
TCL: Running for 1500000 steps
ETITLE: TS BOND ANGLE DIHED IMPRP ELECT VDW BOUNDARY MISC KINETIC TOTAL TEMP POTENTIAL TOTALAVG TEMPAVG PRESSURE GPRESSURE VOLUME PRESSAVG GPRESSAVG
ENERGY: 0 3.6625 20.2932 9.3866 0.0000 -10358.0024 1327.6243 0.0000 0.0000 1732.4756 -7264.5603 296.2859 -8997.0358 -7264.5603 296.2859 -555.0935 -461.3003 30714.8704 -555.0935 -461.3003
ENERGY: 300000 1.7949 15.8494 6.3432 0.0000 -10419.0532 1339.6884 0.0000 0.0000 1833.7177 -7221.6596 313.6003 -9055.3773 -7334.4025 301.0912 -361.0492 -321.0798 30685.6536 -207.9995 -122.3370
ENERGY: 600000 4.8593 13.6141 4.9977 0.0000 -10433.9617 1342.5656 0.0000 0.0000 1796.2380 -7271.6871 307.1905 -9067.9251 -7317.1439 302.9916 -393.7169 -288.5722 30179.1137 -121.9256 -37.0228
ENERGY: 900000 3.7722 15.4946 7.7603 0.0000 -10656.4443 1446.4702 0.0000 0.0000 1745.9416 -7437.0054 298.5889 -9182.9470 -7346.3277 302.1110 34.5563 53.7847 30209.9726 -71.7076 4.8486
ENERGY: 1200000 6.0731 13.6446 7.4865 0.0000 -10388.1483 1318.6939 0.0000 0.0000 1760.2919 -7281.9583 301.0431 -9042.2502 -7353.7034 302.3957 -878.3417 -747.9955 30803.3997 -47.2492 38.7314
ENERGY: 1500000 1.4224 17.2723 8.6027 0.0000 -10630.8494 1409.7368 0.0000 0.0000 1818.9931 -7374.8222 311.0821 -9193.8153 -7360.1994 303.4047 -305.5731 -261.4186 30596.3535 -110.2521 -29.5039
TCL: Running FEP window   3: Lambda1 0.8999999999999999 Lambda2 0.8499999999999999 [dLambda -0.050000000000000044]
TCL: Setting parameter firsttimestep to 0
TCL: Setting parameter alchLambda to 0.8999999999999999
Info: NONBONDED TABLE R-SQUARED SPACING: 0.0625
Info: NONBONDED TABLE SIZE: 705 POINTS
TCL: Setting parameter alchLambda2 to 0.8499999999999999
Info: NONBONDED TABLE R-SQUARED SPACING: 0.0625
Info: NONBONDED TABLE SIZE: 705 POINTS
TCL: Running for 1500000 steps
ETITLE: TS BOND ANGLE DIHED IMPRP ELECT VDW BOUNDARY MISC KINETIC TOTAL TEMP POTENTIAL TOTALAVG TEMPAVG PRESSURE GPRESSURE VOLUME PRESSAVG GPRESSAVG
ENERGY: 0 1.4224 17.2723 8.6027 0.0000 -10629.4635 1409.9602 0.0000 0.0000 1818.0785 -7374.1275 310.9257 -9192.2060 -7374.1275 310.9257 -339.5982 -270.7465 30596.3535 -339.5982 -270.7465
ENERGY: 300000 4.9929 14.8163 7.6848 0.0000 -10604.6164 1435.8616 0.0000 0.0000 1782.3002 -7358.9606 304.8069 -9141.2607 -7366.1230 303.7498 162.4817 220.7459 30033.4959 -40.7480 43.3485
ENERGY: 600000 5.1154 12.1209 5.9954 0.0000 -10608.4656 1416.6666 0.0000 0.0000 1751.9237 -7416.6436 299.6119 -9168.5673 -7369.5637 302.3666 330.8297 404.1524 29678.0519 109.5146 182.1751
ENERGY: 900000 3.0864 15.3177 6.8702 0.0000 -10535.3917 1437.9718 0.0000 0.0000 1745.8609 -7326.2848 298.5751 -9072.1457 -7376.1801 300.6084 148.2970 223.3180 30699.6627 -0.4886 71.1771
ENERGY: 1200000 1.5760 19.0444 6.3860 0.0000 -10452.7497 1344.0961 0.0000 0.0000 1727.0809 -7354.5663 295.3633 -9081.6472 -7361.2062 300.8652 -472.5932 -430.6978 30378.9762 -95.2723 -25.1104
ENERGY: 1500000 2.9370 12.0772 8.6498 0.0000 -10412.8665 1314.6884 0.0000 0.0000 1727.6343 -7346.8798 295.4580 -9074.5141 -7363.3769 300.0477 -623.1533 -489.2031 30068.8940 -79.7064 -6.8629
TCL: Running FEP window   4: Lambda1 0.8499999999999999 Lambda2 0.7999999999999998 [dLambda -0.050000000000000044]
TCL: Setting parameter firsttimestep to 0
TCL: Setting parameter alchLambda to 0.8499999999999999
Info: NONBONDED TABLE R-SQUARED SPACING: 0.0625
Info: NONBONDED TABLE SIZE: 705 POINTS
TCL: Setting parameter alchLambda2 to 0.7999999999999998
Info: NONBONDED TABLE R-SQUARED SPACING: 0.0625
Info: NONBONDED TABLE SIZE: 705 POINTS
TCL: Running for 1500000 steps
ETITLE: TS BOND ANGLE DIHED IMPRP ELECT VDW BOUNDARY MISC KINETIC TOTAL TEMP POTENTIAL TOTALAVG TEMPAVG PRESSURE GPRESSURE VOLUME PRESSAVG GPRESSAVG
ENERGY: 0 2.9370 12.0772 8.6498 0.0000 -10411.5494 1314.8163 0.0000 0.0000 1726.7321 -7346.3371 295.3037 -9073.0691 -7346.3371 295.3037 -586.1322 -502.2125 30068.8940 -586.1322 -502.2125
ENERGY: 300000 5.8227 16.4968 6.8462 0.0000 -10470.5807 1317.1322 0.0000 0.0000 1698.7522 -7425.5306 290.5186 -9124.2828 -7380.0552 300.1839 -1053.9595 -919.5996 30534.5182 -320.2347 -224.7014
ENERGY: 600000 4.1361 15.8529 4.7751 0.0000 -10456.6002 1320.6124 0.0000 0.0000 1779.9275 -7331.2962 304.4011 -9111.2237 -7363.0324 301.8874 -762.8486 -659.1505 30080.5118 -204.3926 -104.9109
ENERGY: 900000 5.5047 17.5982 6.3992 0.0000 -10493.0885 1364.8962 0.0000 0.0000 1771.7441 -7326.9460 303.0016 -9098.6901 -7364.6322 301.6934 -321.0791 -237.0827 30223.1893 -141.2474 -51.1370
ENERGY: 1200000 2.0552 17.4444 5.7450 0.0000 -10669.8399 1493.6735 0.0000 0.0000 1720.8204 -7430.1014 294.2927 -9150.9219 -7357.2929 301.3725 405.1345 454.5900 30389.2703 -60.1865 22.9125
ENERGY: 1500000 4.3963 11.2905 6.3038 0.0000 -10569.0188 1401.1209 0.0000 0.0000 1746.0880 -7399.8194 298.6139 -9145.9073 -7359.2796 301.4809 -330.1824 -314.0258 30213.3506 -84.0363 -6.5123
TCL: Running FEP window   5: Lambda1 0.7999999999999998 Lambda2 0.7499999999999998 [dLambda -0.050000000000000044]
TCL: Setting parameter firsttimestep to 0
TCL: Setting parameter alchLambda to 0.7999999999999998
Info: NONBONDED TABLE R-SQUARED SPACING: 0.0625
Info: NONBONDED TABLE SIZE: 705 POINTS
TCL: Setting parameter alchLambda2 to 0.7499999999999998
Info: NONBONDED TABLE R-SQUARED SPACING: 0.0625
Info: NONBONDED TABLE SIZE: 705 POINTS
TCL: Running for 1500000 steps
ETITLE: TS BOND ANGLE DIHED IMPRP ELECT VDW BOUNDARY MISC KINETIC TOTAL TEMP POTENTIAL TOTALAVG TEMPAVG PRESSURE GPRESSURE VOLUME PRESSAVG GPRESSAVG
ENERGY: 0 4.3963 11.2905 6.3038 0.0000 -10567.7609 1400.6657 0.0000 0.0000 1745.2283 -7399.8763 298.4669 -9145.1046 -7399.8763 298.4669 -403.9005 -333.9422 30213.3506 -403.9005 -333.9422
ENERGY: 300000 3.3578 16.6697 5.7306 0.0000 -10638.9863 1431.1090 0.0000 0.0000 1801.1140 -7381.0050 308.0244 -9182.1190 -7361.7367 302.4742 14.1712 142.0920 29881.0884 -3.9763 66.2671
ENERGY: 600000 3.4580 26.6684 8.2489 0.0000 -10521.1476 1386.6383 0.0000 0.0000 1721.5570 -7374.5771 294.4187 -9096.1341 -7361.0269 300.8344 -63.5212 -6.8312 29922.3200 -115.5011 -54.6010
ENERGY: 900000 2.7843 8.5229 5.7544 0.0000 -10712.4978 1495.3084 0.0000 0.0000 1689.7897 -7510.3380 288.9859 -9200.1278 -7374.4327 299.9966 453.6733 479.4457 29905.1608 -105.6277 -40.4049
ENERGY: 1200000 4.7400 13.8269 5.6302 0.0000 -10582.9186 1422.1512 0.0000 0.0000 1712.6353 -7423.9349 292.8929 -9136.5702 -7374.0919 299.1178 -422.9222 -324.7328 30585.4970 -121.1812 -54.6053
ENERGY: 1500000 5.0799 13.6814 9.0151 0.0000 -10566.9328 1441.1627 0.0000 0.0000 1740.0872 -7357.9064 297.5877 -9097.9936 -7377.2303 299.1335 292.5329 354.3382 30355.6843 -77.9115 -9.2462
TCL: Running FEP window   6: Lambda1 0.7499999999999998 Lambda2 0.6999999999999997 [dLambda -0.050000000000000044]
TCL: Setting parameter firsttimestep to 0
TCL: Setting parameter alchLambda to 0.7499999999999998
Info: NONBONDED TABLE R-SQUARED SPACING: 0.0625
Info: NONBONDED TABLE SIZE: 705 POINTS
TCL: Setting parameter alchLambda2 to 0.6999999999999997
Info: NONBONDED TABLE R-SQUARED SPACING: 0.0625
Info: NONBONDED TABLE SIZE: 705 POINTS
TCL: Running for 1500000 steps
ETITLE: TS BOND ANGLE DIHED IMPRP ELECT VDW BOUNDARY MISC KINETIC TOTAL TEMP POTENTIAL TOTALAVG TEMPAVG PRESSURE GPRESSURE VOLUME PRESSAVG GPRESSAVG
ENERGY: 0 5.0799 13.6814 9.0151 0.0000 -10565.0596 1440.8891 0.0000 0.0000 1739.2230 -7357.1711 297.4399 -9096.3941 -7357.1711 297.4399 245.8549 340.9727 30355.6843 245.8549 340.9727
ENERGY: 300000 4.2176 17.5787 7.0350 0.0000 -10553.5242 1404.4532 0.0000 0.0000 1757.5983 -7362.6414 300.5824 -9120.2397 -7365.6486 300.3716 -123.6664 -42.2328 30075.6379 327.1347 384.9624
ENERGY: 600000 2.9069 15.0737 5.2745 0.0000 -10708.5095 1582.3224 0.0000 0.0000 1696.3794 -7406.5525 290.1128 -9102.9319 -7373.7411 297.6102 1387.7016 1404.7572 30013.9988 421.2472 466.7313
ENERGY: 900000 2.4930 17.7036 5.6756 0.0000 -10529.2443 1350.9838 0.0000 0.0000 1719.1266 -7433.2616 294.0030 -9152.3882 -7386.1049 298.1722 -567.8805 -543.0640 29930.0812 267.9811 319.0505
ENERGY: 1200000 0.8465 19.4149 6.6665 0.0000 -10526.3926 1342.4784 0.0000 0.0000 1761.7742 -7395.2120 301.2965 -9156.9862 -7388.7124 298.7261 -560.9302 -508.1826 29971.8261 148.6417 202.0540
ENERGY: 1500000 7.3602 15.1613 8.3679 0.0000 -10518.3496 1373.3905 0.0000 0.0000 1763.2607 -7350.8090 301.5508 -9114.0697 -7387.6781 299.6194 -466.3319 -410.0723 30168.0386 110.7012 162.9305
TCL: Running FEP window   7: Lambda1 0.6999999999999997 Lambda2 0.6499999999999997 [dLambda -0.050000000000000044]
TCL: Setting parameter firsttimestep to 0
TCL: Setting parameter alchLambda to 0.6999999999999997
Info: NONBONDED TABLE R-SQUARED SPACING: 0.0625
Info: NONBONDED TABLE SIZE: 705 POINTS
TCL: Setting parameter alchLambda2 to 0.6499999999999997
Info: NONBONDED TABLE R-SQUARED SPACING: 0.0625
Info: NONBONDED TABLE SIZE: 705 POINTS
TCL: Running for 1500000 steps
ETITLE: TS BOND ANGLE DIHED IMPRP ELECT VDW BOUNDARY MISC KINETIC TOTAL TEMP POTENTIAL TOTALAVG TEMPAVG PRESSURE GPRESSURE VOLUME PRESSAVG GPRESSAVG
ENERGY: 0 7.3602 15.1613 8.3679 0.0000 -10516.8550 1373.5615 0.0000 0.0000 1762.4158 -7349.9884 301.4063 -9112.4042 -7349.9884 301.4063 -488.9361 -416.3711 30168.0386 -488.9361 -416.3711
ENERGY: 300000 3.9082 21.5711 7.5488 0.0000 -10530.3265 1379.3230 0.0000 0.0000 1789.7678 -7328.2077 306.0840 -9117.9755 -7397.2121 300.2613 -72.2175 -22.1843 30048.8705 -132.2388 -88.7747
ENERGY: 600000 2.2261 16.9720 6.3605 0.0000 -10627.2398 1469.0663 0.0000 0.0000 1779.6565 -7352.9584 304.3548 -9132.6149 -7387.3418 297.9129 572.5327 583.4424 30053.0850 -104.6063 -82.7596
ENERGY: 900000 1.6004 15.3682 6.2906 0.0000 -10563.1534 1482.9590 0.0000 0.0000 1779.2291 -7277.7060 304.2817 -9056.9351 -7378.2064 298.6345 474.9241 524.1850 30487.5343 52.7896 87.8827
ENERGY: 1200000 4.0205 16.6099 7.1023 0.0000 -10598.7435 1494.5510 0.0000 0.0000 1757.4858 -7318.9740 300.5632 -9076.4598 -7378.0119 298.5761 496.5523 517.7668 30299.6018 69.1867 108.6538
ENERGY: 1500000 3.0448 17.4876 6.9232 0.0000 -10436.1870 1339.8784 0.0000 0.0000 1726.6462 -7342.2068 295.2890 -9068.8530 -7376.6344 298.4132 -435.1795 -363.8821 30108.9981 32.1412 73.9888
TCL: Running FEP window   8: Lambda1 0.6499999999999997 Lambda2 0.5999999999999996 [dLambda -0.050000000000000044]
TCL: Setting parameter firsttimestep to 0
TCL: Setting parameter alchLambda to 0.6499999999999997
Info: NONBONDED TABLE R-SQUARED SPACING: 0.0625
Info: NONBONDED TABLE SIZE: 705 POINTS
TCL: Setting parameter alchLambda2 to 0.5999999999999996
Info: NONBONDED TABLE R-SQUARED SPACING: 0.0625
Info: NONBONDED TABLE SIZE: 705 POINTS
TCL: Running for 1500000 steps
ETITLE: TS BOND ANGLE DIHED IMPRP ELECT VDW BOUNDARY MISC KINETIC TOTAL TEMP POTENTIAL TOTALAVG TEMPAVG PRESSURE GPRESSURE VOLUME PRESSAVG GPRESSAVG
ENERGY: 0 3.0448 17.4876 6.9232 0.0000 -10434.7990 1339.1724 0.0000 0.0000 1725.7513 -7342.4197 295.1360 -9068.1710 -7342.4197 295.1360 -462.7904 -380.0207 30108.9981 -462.7904 -380.0207
ENERGY: 300000 4.2179 11.0615 4.8919 0.0000 -10617.3409 1409.9042 0.0000 0.0000 1717.1543 -7470.1111 293.6657 -9187.2654 -7374.5881 297.6052 26.8344 -0.5905 29705.0156 -202.9872 -139.9771
ENERGY: 600000 4.5867 11.5019 7.9960 0.0000 -10527.1036 1381.7192 0.0000 0.0000 1752.0346 -7369.2653 299.6309 -9121.2999 -7389.0927 297.4883 -202.3682 -126.3143 30045.3244 -214.3365 -146.0955
ENERGY: 900000 3.9507 24.0096 6.8768 0.0000 -10502.1044 1320.4588 0.0000 0.0000 1719.6922 -7427.1163 294.0997 -9146.8085 -7378.8384 297.2646 -1092.6404 -1032.6808 30637.8495 -267.0755 -206.4826
ENERGY: 1200000 5.3404 14.5566 7.7400 0.0000 -10414.5199 1358.9879 0.0000 0.0000 1767.0740 -7260.8211 302.2029 -9027.8951 -7372.5415 297.6009 -657.2893 -623.8612 30841.1436 -243.8483 -182.4433
ENERGY: 1500000 5.5755 12.6980 6.1187 0.0000 -10520.5684 1311.3918 0.0000 0.0000 1764.5261 -7420.2582 301.7672 -9184.7843 -7377.3215 297.9230 -984.2767 -888.2629 29963.3704 -285.7888 -222.7230
TCL: Running FEP window   9: Lambda1 0.5999999999999996 Lambda2 0.5499999999999996 [dLambda -0.050000000000000044]
TCL: Setting parameter firsttimestep to 0
TCL: Setting parameter alchLambda to 0.5999999999999996
Info: NONBONDED TABLE R-SQUARED SPACING: 0.0625
Info: NONBONDED TABLE SIZE: 705 POINTS
TCL: Setting parameter alchLambda2 to 0.5499999999999996
Info: NONBONDED TABLE R-SQUARED SPACING: 0.0625
Info: NONBONDED TABLE SIZE: 705 POINTS
TCL: Running for 1500000 steps
ETITLE: TS BOND ANGLE DIHED IMPRP ELECT VDW BOUNDARY MISC KINETIC TOTAL TEMP POTENTIAL TOTALAVG TEMPAVG PRESSURE GPRESSURE VOLUME PRESSAVG GPRESSAVG
ENERGY: 0 5.5755 12.6980 6.1187 0.0000 -10519.6912 1311.3194 0.0000 0.0000 1763.6561 -7420.3234 301.6184 -9183.9796 -7420.3234 301.6184 -986.1665 -898.7064 29963.3704 -986.1665 -898.7064
ENERGY: 300000 3.5331 12.9123 5.9132 0.0000 -10646.5122 1390.0401 0.0000 0.0000 1711.1740 -7522.9396 292.6430 -9234.1136 -7417.1395 298.1529 -499.6820 -415.8401 30260.7599 -230.3895 -160.4752
ENERGY: 600000 1.4883 15.6848 6.0125 0.0000 -10627.3983 1446.6335 0.0000 0.0000 1768.5474 -7389.0318 302.4549 -9157.5791 -7394.6457 298.6381 112.7858 157.9918 30048.8878 -244.1828 -191.4438
ENERGY: 900000 2.9380 14.9544 6.0836 0.0000 -10623.7688 1479.4954 0.0000 0.0000 1724.9657 -7395.3318 295.0016 -9120.2975 -7390.6826 297.7613 343.7013 389.2736 30166.8171 -76.8865 -24.8729
ENERGY: 1200000 2.8686 17.3114 7.5789 0.0000 -10464.6726 1380.0476 0.0000 0.0000 1758.9977 -7297.8684 300.8217 -9056.8662 -7379.5258 298.6230 -230.2059 -167.1640 30258.0534 -85.2916 -35.0184
ENERGY: 1500000 2.1293 17.6350 5.7351 0.0000 -10702.1085 1482.1615 0.0000 0.0000 1738.0263 -7456.4213 297.2352 -9194.4476 -7393.2873 298.6775 98.4795 172.9056 30250.1315 -50.2331 2.3308
TCL: Running FEP window  10: Lambda1 0.5499999999999996 Lambda2 0.4999999999999996 [dLambda -0.04999999999999999]
TCL: Setting parameter firsttimestep to 0
TCL: Setting parameter alchLambda to 0.5499999999999996
Info: NONBONDED TABLE R-SQUARED SPACING: 0.0625
Info: NONBONDED TABLE SIZE: 705 POINTS
TCL: Setting parameter alchLambda2 to 0.4999999999999996
Info: NONBONDED TABLE R-SQUARED SPACING: 0.0625
Info: NONBONDED TABLE SIZE: 705 POINTS
TCL: Running for 1500000 steps
ETITLE: TS BOND ANGLE DIHED IMPRP ELECT VDW BOUNDARY MISC KINETIC TOTAL TEMP POTENTIAL TOTALAVG TEMPAVG PRESSURE GPRESSURE VOLUME PRESSAVG GPRESSAVG
ENERGY: 0 2.1293 17.6350 5.7351 0.0000 -10701.8460 1482.5704 0.0000 0.0000 1737.1666 -7456.6096 297.0882 -9193.7762 -7456.6096 297.0882 77.0175 167.3129 30250.1315 77.0175 167.3129
ENERGY: 300000 2.0997 13.9102 8.7888 0.0000 -10535.1187 1390.3710 0.0000 0.0000 1784.7704 -7335.1786 305.2293 -9119.9490 -7396.3470 299.4516 -235.2208 -137.9437 30147.8935 36.9062 115.5638
ENERGY: 600000 1.7779 16.0598 6.6507 0.0000 -10723.7491 1497.4092 0.0000 0.0000 1736.3749 -7465.4767 296.9528 -9201.8516 -7412.4236 298.9516 599.5769 672.1246 29501.2592 109.4969 180.3553
ENERGY: 900000 2.9523 15.0951 5.9903 0.0000 -10626.0225 1447.6708 0.0000 0.0000 1730.6081 -7423.7060 295.9666 -9154.3140 -7411.0072 299.0672 301.3764 379.1376 29818.6745 167.1758 238.9748
ENERGY: 1200000 4.9199 13.2466 8.2737 0.0000 -10577.4281 1425.3466 0.0000 0.0000 1705.9420 -7419.6992 291.7482 -9125.6412 -7409.0315 298.7807 -209.2684 -124.7097 30217.6850 58.0936 129.7583
ENERGY: 1500000 2.6276 19.9161 7.0111 0.0000 -10613.9049 1410.3003 0.0000 0.0000 1760.4585 -7413.5912 301.0715 -9174.0497 -7404.9882 298.7602 -129.1023 -13.0220 29712.3894 28.9754 96.2275
TCL: Running FEP window  11: Lambda1 0.4999999999999996 Lambda2 0.4499999999999996 [dLambda -0.04999999999999999]
TCL: Setting parameter firsttimestep to 0
TCL: Setting parameter alchLambda to 0.4999999999999996
Info: NONBONDED TABLE R-SQUARED SPACING: 0.0625
Info: NONBONDED TABLE SIZE: 705 POINTS
TCL: Setting parameter alchLambda2 to 0.4499999999999996
Info: NONBONDED TABLE R-SQUARED SPACING: 0.0625
Info: NONBONDED TABLE SIZE: 705 POINTS
TCL: Running for 1500000 steps
ETITLE: TS BOND ANGLE DIHED IMPRP ELECT VDW BOUNDARY MISC KINETIC TOTAL TEMP POTENTIAL TOTALAVG TEMPAVG PRESSURE GPRESSURE VOLUME PRESSAVG GPRESSAVG
ENERGY: 0 2.6276 19.9161 7.0111 0.0000 -10613.9843 1411.1346 0.0000 0.0000 1759.5689 -7413.7260 300.9194 -9173.2949 -7413.7260 300.9194 -111.1419 -14.0619 29712.3894 -111.1419 -14.0619
ENERGY: 300000 2.8811 19.9705 7.9743 0.0000 -10524.1713 1439.0938 0.0000 0.0000 1759.0788 -7295.1727 300.8356 -9054.2516 -7385.5429 298.9274 333.4361 456.7270 30179.2521 35.4850 137.3307
ENERGY: 600000 5.5372 17.2557 7.3028 0.0000 -10452.7834 1380.1676 0.0000 0.0000 1735.4945 -7307.0256 296.8022 -9042.5201 -7363.4387 299.9217 -139.9269 -77.2193 30092.4664 19.3885 101.0454
ENERGY: 900000 1.7397 17.0540 6.8793 0.0000 -10546.4045 1431.7077 0.0000 0.0000 1735.1946 -7353.8293 296.7509 -9089.0238 -7367.1306 298.8392 -148.8807 -54.6368 30618.1759 -95.5271 -17.2394
ENERGY: 1200000 3.7618 14.9858 8.1274 0.0000 -10509.1242 1395.1387 0.0000 0.0000 1746.7432 -7340.3674 298.7260 -9087.1106 -7371.8937 298.1623 -114.1415 -83.2575 30241.8237 -60.5882 20.8064
ENERGY: 1500000 3.1171 17.2142 9.8588 0.0000 -10520.0059 1348.7293 0.0000 0.0000 1741.0903 -7399.9964 297.7592 -9141.0867 -7364.5274 298.8456 -818.3461 -713.1826 30062.2231 -160.7988 -76.7920
TCL: Running FEP window  12: Lambda1 0.4499999999999996 Lambda2 0.39999999999999963 [dLambda -0.04999999999999999]
TCL: Setting parameter firsttimestep to 0
TCL: Setting parameter alchLambda to 0.4499999999999996
Info: NONBONDED TABLE R-SQUARED SPACING: 0.0625
Info: NONBONDED TABLE SIZE: 705 POINTS
TCL: Setting parameter alchLambda2 to 0.39999999999999963
Info: NONBONDED TABLE R-SQUARED SPACING: 0.0625
Info: NONBONDED TABLE SIZE: 705 POINTS
TCL: Running for 1500000 steps
ETITLE: TS BOND ANGLE DIHED IMPRP ELECT VDW BOUNDARY MISC KINETIC TOTAL TEMP POTENTIAL TOTALAVG TEMPAVG PRESSURE GPRESSURE VOLUME PRESSAVG GPRESSAVG
ENERGY: 0 3.1171 17.2142 9.8588 0.0000 -10520.0073 1349.5994 0.0000 0.0000 1740.1702 -7400.0477 297.6019 -9140.2179 -7400.0477 297.6019 -801.7094 -716.0018 30062.2231 -801.7094 -716.0018
ENERGY: 300000 1.4047 13.9907 6.8108 0.0000 -10590.0899 1418.4597 0.0000 0.0000 1747.4796 -7401.9444 298.8519 -9149.4240 -7359.1686 297.1028 0.4668 62.6795 30092.5979 -325.3767 -268.9343
ENERGY: 600000 2.6166 21.4881 8.4626 0.0000 -10524.0708 1405.1623 0.0000 0.0000 1762.9940 -7323.3473 301.5052 -9086.3413 -7369.5117 298.1617 78.7296 155.2432 29715.8381 -281.3003 -224.4371
ENERGY: 900000 4.5737 14.1085 5.6519 0.0000 -10620.9545 1451.0508 0.0000 0.0000 1802.0936 -7343.4760 308.1919 -9145.5697 -7371.7196 299.9778 20.1709 96.0879 30052.5923 -159.8103 -107.6760
ENERGY: 1200000 3.2244 14.6457 6.2464 0.0000 -10525.1664 1386.0295 0.0000 0.0000 1761.3708 -7353.6496 301.2276 -9115.0204 -7367.0663 300.0920 -14.1128 -25.0296 29830.4034 -97.3170 -51.1800
ENERGY: 1500000 3.8452 12.2079 6.7618 0.0000 -10625.1690 1397.1335 0.0000 0.0000 1781.8054 -7423.4153 304.7223 -9205.2206 -7381.6440 299.7100 -295.8311 -293.2351 30085.6343 -82.7408 -37.3051
TCL: Running FEP window  13: Lambda1 0.39999999999999963 Lambda2 0.34999999999999964 [dLambda -0.04999999999999999]
TCL: Setting parameter firsttimestep to 0
TCL: Setting parameter alchLambda to 0.39999999999999963
Info: NONBONDED TABLE R-SQUARED SPACING: 0.0625
Info: NONBONDED TABLE SIZE: 705 POINTS
TCL: Setting parameter alchLambda2 to 0.34999999999999964
Info: NONBONDED TABLE R-SQUARED SPACING: 0.0625
Info: NONBONDED TABLE SIZE: 705 POINTS
TCL: Running for 1500000 steps
ETITLE: TS BOND ANGLE DIHED IMPRP ELECT VDW BOUNDARY MISC KINETIC TOTAL TEMP POTENTIAL TOTALAVG TEMPAVG PRESSURE GPRESSURE VOLUME PRESSAVG GPRESSAVG
ENERGY: 0 3.8452 12.2079 6.7618 0.0000 -10625.1693 1397.5990 0.0000 0.0000 1780.9393 -7423.8161 304.5741 -9204.7555 -7423.8161 304.5741 -394.9966 -300.6479 30085.6343 -394.9966 -300.6479
ENERGY: 300000 1.3002 18.8612 9.1030 0.0000 -10648.1852 1452.9488 0.0000 0.0000 1708.0039 -7457.9682 292.1008 -9165.9721 -7382.0372 299.1906 81.6538 182.4998 30121.8884 -15.1510 54.2966
ENERGY: 600000 5.5504 32.4456 7.8331 0.0000 -10501.2649 1403.5944 0.0000 0.0000 1794.6317 -7257.2096 306.9158 -9051.8414 -7362.0930 300.7897 -179.7258 -30.2805 30268.5454 31.2332 108.5167
ENERGY: 900000 4.3697 21.9866 6.4945 0.0000 -10463.7929 1392.9454 0.0000 0.0000 1770.2918 -7267.7049 302.7532 -9037.9967 -7373.5664 299.6833 -114.3200 -143.5779 30475.6183 79.7335 152.5109
ENERGY: 1200000 3.0179 14.7417 8.0393 0.0000 -10528.5484 1349.5559 0.0000 0.0000 1803.5118 -7349.6818 308.4345 -9153.1936 -7369.2800 300.2463 -658.7402 -555.1717 29900.0555 47.9304 115.9623
ENERGY: 1500000 3.4622 17.9042 6.4560 0.0000 -10626.0651 1481.5490 0.0000 0.0000 1724.1984 -7392.4953 294.8704 -9116.6938 -7374.3047 299.8388 374.6158 420.7875 30080.3087 93.4184 161.0480
TCL: Running FEP window  14: Lambda1 0.34999999999999964 Lambda2 0.29999999999999966 [dLambda -0.04999999999999999]
TCL: Setting parameter firsttimestep to 0
TCL: Setting parameter alchLambda to 0.34999999999999964
Info: NONBONDED TABLE R-SQUARED SPACING: 0.0625
Info: NONBONDED TABLE SIZE: 705 POINTS
TCL: Setting parameter alchLambda2 to 0.29999999999999966
Info: NONBONDED TABLE R-SQUARED SPACING: 0.0625
Info: NONBONDED TABLE SIZE: 705 POINTS
TCL: Running for 1500000 steps
ETITLE: TS BOND ANGLE DIHED IMPRP ELECT VDW BOUNDARY MISC KINETIC TOTAL TEMP POTENTIAL TOTALAVG TEMPAVG PRESSURE GPRESSURE VOLUME PRESSAVG GPRESSAVG
ENERGY: 0 3.4622 17.9042 6.4560 0.0000 -10626.0651 1482.4681 0.0000 0.0000 1723.2932 -7392.4815 294.7156 -9115.7747 -7392.4815 294.7156 342.1857 418.4443 30080.3087 342.1857 418.4443
ENERGY: 300000 3.4994 15.7856 5.5891 0.0000 -10494.2550 1392.9154 0.0000 0.0000 1769.7217 -7306.7439 302.6557 -9076.4655 -7312.6734 299.8840 -146.0221 -91.5212 30027.5913 285.3945 328.6803
ENERGY: 600000 3.3961 19.9064 7.7981 0.0000 -10495.1159 1375.2296 0.0000 0.0000 1723.6701 -7365.1156 294.7800 -9088.7857 -7331.0657 300.0805 -423.2948 -370.2297 30228.5353 271.6940 320.3846
ENERGY: 900000 2.2530 13.0831 6.9336 0.0000 -10333.4176 1267.6865 0.0000 0.0000 1790.6952 -7252.7662 306.2426 -9043.4614 -7326.5296 301.2159 -1132.2287 -1039.9840 30619.0644 -14.1832 30.4873
ENERGY: 1200000 4.1018 17.6869 8.1529 0.0000 -10561.2585 1423.3194 0.0000 0.0000 1786.9475 -7321.0501 305.6017 -9107.9976 -7334.0379 301.4451 81.9568 132.3682 29879.6035 -63.0809 -15.3396
ENERGY: 1500000 7.6650 21.5331 7.2947 0.0000 -10538.1338 1443.1729 0.0000 0.0000 1679.6428 -7378.8254 287.2505 -9058.4681 -7340.7922 300.3737 170.0965 226.5188 30143.1868 -13.7132 35.0249
TCL: Running FEP window  15: Lambda1 0.29999999999999966 Lambda2 0.24999999999999967 [dLambda -0.04999999999999999]
TCL: Setting parameter firsttimestep to 0
TCL: Setting parameter alchLambda to 0.29999999999999966
Info: NONBONDED TABLE R-SQUARED SPACING: 0.0625
Info: NONBONDED TABLE SIZE: 705 POINTS
TCL: Setting parameter alchLambda2 to 0.24999999999999967
Info: NONBONDED TABLE R-SQUARED SPACING: 0.0625
Info: NONBONDED TABLE SIZE: 705 POINTS
TCL: Running for 1500000 steps
ETITLE: TS BOND ANGLE DIHED IMPRP ELECT VDW BOUNDARY MISC KINETIC TOTAL TEMP POTENTIAL TOTALAVG TEMPAVG PRESSURE GPRESSURE VOLUME PRESSAVG GPRESSAVG
ENERGY: 0 7.6649 21.5331 7.2947 0.0000 -10538.1321 1443.4295 0.0000 0.0000 1678.7465 -7379.4633 287.0973 -9058.2098 -7379.4633 287.0973 132.3283 217.5314 30143.1868 132.3283 217.5314
ENERGY: 300000 2.8743 14.8213 7.1148 0.0000 -10554.3245 1402.0654 0.0000 0.0000 1747.7151 -7379.7335 298.8922 -9127.4487 -7336.8690 296.2812 -57.2978 -82.7407 30052.8638 94.6805 133.4046
ENERGY: 600000 3.0874 20.2900 6.2065 0.0000 -10670.0369 1454.0499 0.0000 0.0000 1719.4998 -7466.9033 294.0668 -9186.4031 -7366.3935 298.0771 5.3011 73.9246 29679.8258 -54.8380 -3.1457
ENERGY: 900000 3.0315 17.1771 8.0061 0.0000 -10532.1847 1430.2591 0.0000 0.0000 1764.9602 -7308.7506 301.8414 -9073.7109 -7362.1551 299.3881 -84.9811 52.6224 30184.8648 69.2931 128.9486
ENERGY: 1200000 2.5896 14.2684 8.8857 0.0000 -10481.0346 1415.9090 0.0000 0.0000 1722.9548 -7316.4271 294.6577 -9039.3818 -7362.7258 299.1617 -15.8114 42.2202 30714.6633 9.7259 62.7819
ENERGY: 1500000 1.6494 15.7749 7.5039 0.0000 -10548.8258 1409.1429 0.0000 0.0000 1802.6041 -7312.1505 308.2792 -9114.7547 -7361.6964 299.6757 140.7380 213.6495 29896.9683 45.0388 93.4701
TCL: Running FEP window  16: Lambda1 0.24999999999999967 Lambda2 0.19999999999999968 [dLambda -0.04999999999999999]
TCL: Setting parameter firsttimestep to 0
TCL: Setting parameter alchLambda to 0.24999999999999967
Info: NONBONDED TABLE R-SQUARED SPACING: 0.0625
Info: NONBONDED TABLE SIZE: 705 POINTS
TCL: Setting parameter alchLambda2 to 0.19999999999999968
Info: NONBONDED TABLE R-SQUARED SPACING: 0.0625
Info: NONBONDED TABLE SIZE: 705 POINTS
TCL: Running for 1500000 steps
ETITLE: TS BOND ANGLE DIHED IMPRP ELECT VDW BOUNDARY MISC KINETIC TOTAL TEMP POTENTIAL TOTALAVG TEMPAVG PRESSURE GPRESSURE VOLUME PRESSAVG GPRESSAVG
ENERGY: 0 1.6494 15.7749 7.5039 0.0000 -10548.8223 1409.2956 0.0000 0.0000 1801.7324 -7312.8661 308.1302 -9114.5986 -7312.8661 308.1302 130.1764 207.5064 29896.9683 130.1764 207.5064
ENERGY: 300000 1.6989 12.2538 6.3887 0.0000 -10461.3123 1378.1946 0.0000 0.0000 1756.9767 -7305.7996 300.4761 -9062.7762 -7348.1202 300.7726 -170.1196 -105.1829 30058.4340 -86.4960 -31.8125
ENERGY: 600000 2.9808 12.9917 6.1638 0.0000 -10590.0623 1434.8384 0.0000 0.0000 1761.0679 -7372.0197 301.1758 -9133.0876 -7356.5299 299.8748 -20.2964 114.0442 30025.4723 -88.7402 -18.5452
ENERGY: 900000 2.2446 16.0114 8.8672 0.0000 -10519.6868 1399.1678 0.0000 0.0000 1737.1736 -7356.2222 297.0894 -9093.3958 -7353.3743 301.4329 -248.1051 -215.3734 30095.1454 -150.2079 -76.9633
ENERGY: 1200000 3.2049 14.9156 6.6126 0.0000 -10637.0315 1425.9414 0.0000 0.0000 1769.2972 -7417.0599 302.5831 -9186.3571 -7356.8418 301.0866 -121.9795 -26.1156 30064.2645 -47.8117 24.5127
ENERGY: 1500000 1.3017 15.3797 5.6210 0.0000 -10576.9147 1489.8006 0.0000 0.0000 1773.2333 -7291.5785 303.2563 -9064.8117 -7351.6825 301.4398 568.4029 588.3711 30362.1763 -21.0324 42.7707
TCL: Running FEP window  17: Lambda1 0.19999999999999968 Lambda2 0.1499999999999997 [dLambda -0.04999999999999999]
TCL: Setting parameter firsttimestep to 0
TCL: Setting parameter alchLambda to 0.19999999999999968
Info: NONBONDED TABLE R-SQUARED SPACING: 0.0625
Info: NONBONDED TABLE SIZE: 705 POINTS
TCL: Setting parameter alchLambda2 to 0.1499999999999997
Info: NONBONDED TABLE R-SQUARED SPACING: 0.0625
Info: NONBONDED TABLE SIZE: 705 POINTS
TCL: Running for 1500000 steps
ETITLE: TS BOND ANGLE DIHED IMPRP ELECT VDW BOUNDARY MISC KINETIC TOTAL TEMP POTENTIAL TOTALAVG TEMPAVG PRESSURE GPRESSURE VOLUME PRESSAVG GPRESSAVG
ENERGY: 0 1.3017 15.3797 5.6210 0.0000 -10576.9151 1489.5477 0.0000 0.0000 1772.4032 -7292.6619 303.1143 -9065.0650 -7292.6619 303.1143 497.3381 582.5198 30362.1763 497.3381 582.5198
ENERGY: 300000 3.5838 14.5391 6.9544 0.0000 -10531.4735 1371.7262 0.0000 0.0000 1736.5849 -7398.0851 296.9887 -9134.6701 -7348.4642 297.0869 -225.9232 -204.7527 29690.2813 80.5246 128.9864
ENERGY: 600000 3.5232 14.7967 6.5054 0.0000 -10541.5112 1421.8188 0.0000 0.0000 1783.2957 -7311.5713 304.9771 -9094.8670 -7335.0052 299.3168 -74.2808 25.3117 30222.4926 99.4953 157.7373
ENERGY: 900000 3.1430 15.4760 4.3957 0.0000 -10432.1236 1306.5590 0.0000 0.0000 1735.3652 -7367.1846 296.7801 -9102.5499 -7338.4224 298.4231 -907.1276 -822.6335 30029.4730 -116.4545 -59.5232
ENERGY: 1200000 2.5372 14.0186 6.0446 0.0000 -10484.8874 1345.0231 0.0000 0.0000 1715.4388 -7401.8251 293.3723 -9117.2640 -7343.3387 299.2545 -750.4393 -669.9348 30391.8853 -193.3965 -138.4968
ENERGY: 1500000 2.2928 11.0560 6.1862 0.0000 -10658.0514 1463.4269 0.0000 0.0000 1794.6567 -7380.4327 306.9201 -9175.0894 -7349.5218 299.4842 96.6244 191.1136 30078.8584 -164.8710 -107.4875
TCL: Running FEP window  18: Lambda1 0.1499999999999997 Lambda2 0.09999999999999969 [dLambda -0.05 ]
TCL: Setting parameter firsttimestep to 0
TCL: Setting parameter alchLambda to 0.1499999999999997
Info: NONBONDED TABLE R-SQUARED SPACING: 0.0625
Info: NONBONDED TABLE SIZE: 705 POINTS
TCL: Setting parameter alchLambda2 to 0.09999999999999969
Info: NONBONDED TABLE R-SQUARED SPACING: 0.0625
Info: NONBONDED TABLE SIZE: 705 POINTS
TCL: Running for 1500000 steps
ETITLE: TS BOND ANGLE DIHED IMPRP ELECT VDW BOUNDARY MISC KINETIC TOTAL TEMP POTENTIAL TOTALAVG TEMPAVG PRESSURE GPRESSURE VOLUME PRESSAVG GPRESSAVG
ENERGY: 0 2.2928 11.0560 6.1862 0.0000 -10658.0509 1463.2333 0.0000 0.0000 1793.7764 -7381.5061 306.7695 -9175.2825 -7381.5061 306.7695 95.2574 187.9628 30078.8584 95.2574 187.9628
ENERGY: 300000 3.4631 17.7812 7.3466 0.0000 -10708.4380 1496.4658 0.0000 0.0000 1718.3112 -7465.0700 293.8636 -9183.3813 -7369.8029 303.3582 480.8682 541.2777 29616.7364 158.8647 216.6373
ENERGY: 600000 2.2934 21.9605 7.0094 0.0000 -10631.5749 1495.8787 0.0000 0.0000 1812.6085 -7291.8244 309.9902 -9104.4329 -7350.7184 304.4789 800.9433 913.8108 29914.7114 128.0579 189.9083
ENERGY: 900000 2.3729 11.0372 7.0384 0.0000 -10562.6033 1463.4291 0.0000 0.0000 1784.9583 -7293.7673 305.2615 -9078.7256 -7348.8546 303.3785 416.9904 423.5149 29860.9784 103.4597 160.0033
ENERGY: 1200000 3.4092 12.8456 6.3906 0.0000 -10666.3348 1501.4108 0.0000 0.0000 1814.8138 -7327.4648 310.3673 -9142.2786 -7341.5731 303.3336 520.4477 585.9793 29941.0633 119.0035 181.5221
ENERGY: 1500000 3.2874 20.0657 8.6682 0.0000 -10500.1757 1418.3605 0.0000 0.0000 1719.9099 -7329.8841 294.1370 -9049.7939 -7338.0058 303.2175 -58.9543 16.7877 30001.0022 95.9825 162.1232
TCL: Running FEP window  19: Lambda1 0.09999999999999969 Lambda2 0.049999999999999684 [dLambda -0.05 ]
TCL: Setting parameter firsttimestep to 0
TCL: Setting parameter alchLambda to 0.09999999999999969
Info: NONBONDED TABLE R-SQUARED SPACING: 0.0625
Info: NONBONDED TABLE SIZE: 705 POINTS
TCL: Setting parameter alchLambda2 to 0.049999999999999684
Info: NONBONDED TABLE R-SQUARED SPACING: 0.0625
Info: NONBONDED TABLE SIZE: 705 POINTS
TCL: Running for 1500000 steps
ETITLE: TS BOND ANGLE DIHED IMPRP ELECT VDW BOUNDARY MISC KINETIC TOTAL TEMP POTENTIAL TOTALAVG TEMPAVG PRESSURE GPRESSURE VOLUME PRESSAVG GPRESSAVG
ENERGY: 0 3.2874 20.0657 8.6682 0.0000 -10500.1749 1418.2303 0.0000 0.0000 1719.0822 -7330.8411 293.9954 -9049.9233 -7330.8411 293.9954 -72.7061 11.7859 30001.0022 -72.7061 11.7859
ENERGY: 300000 2.3331 15.5346 5.6672 0.0000 -10537.7652 1430.7696 0.0000 0.0000 1766.1628 -7317.2980 302.0471 -9083.4607 -7341.7521 297.1432 331.3420 407.8562 29970.1992 -265.6108 -207.7890
ENERGY: 600000 1.8083 17.4561 7.7497 0.0000 -10462.1885 1358.9976 0.0000 0.0000 1758.1032 -7318.0738 300.6687 -9076.1769 -7350.0284 298.4263 -477.5576 -436.1447 30225.3158 -338.2109 -286.3990
ENERGY: 900000 4.0250 20.6145 6.9674 0.0000 -10704.3969 1528.0272 0.0000 0.0000 1747.6786 -7397.0841 298.8859 -9144.7627 -7346.4873 298.8992 780.2719 817.9597 29911.3624 -180.1971 -130.7879
ENERGY: 1200000 2.9283 21.5578 8.6566 0.0000 -10575.2958 1414.1882 0.0000 0.0000 1795.4335 -7332.5313 307.0529 -9127.9648 -7341.5261 299.2663 -151.6931 -140.8021 30189.6160 -216.2732 -160.4575
ENERGY: 1500000 4.6821 13.3703 5.7171 0.0000 -10570.2739 1379.4939 0.0000 0.0000 1712.2881 -7454.7225 292.8335 -9167.0106 -7349.6514 299.1289 -501.8988 -433.0703 30027.3822 -134.4663 -81.0321
TCL: Running FEP window  20: Lambda1 0.049999999999999684 Lambda2 0.0    [dLambda -0.049999999999999684]
TCL: Setting parameter firsttimestep to 0
TCL: Setting parameter alchLambda to 0.049999999999999684
Info: NONBONDED TABLE R-SQUARED SPACING: 0.0625
Info: NONBONDED TABLE SIZE: 705 POINTS
TCL: Setting parameter alchLambda2 to 0.0
Info: NONBONDED TABLE R-SQUARED SPACING: 0.0625
Info: NONBONDED TABLE SIZE: 705 POINTS
TCL: Running for 1500000 steps
ETITLE: TS BOND ANGLE DIHED IMPRP ELECT VDW BOUNDARY MISC KINETIC TOTAL TEMP POTENTIAL TOTALAVG TEMPAVG PRESSURE GPRESSURE VOLUME PRESSAVG GPRESSAVG
ENERGY: 0 4.6821 13.3703 5.7171 0.0000 -10570.2736 1377.5893 0.0000 0.0000 1711.4114 -7457.5034 292.6836 -9168.9148 -7457.5034 292.6836 -532.2419 -443.3101 30027.3822 -532.2419 -443.3101
ENERGY: 300000 2.0043 16.6565 5.2726 0.0000 -10465.1728 1344.1461 0.0000 0.0000 1769.0609 -7328.0324 302.5427 -9097.0933 -7356.8483 303.1482 -305.1154 -290.0451 29562.4008 -219.3686 -170.1487
ENERGY: 600000 3.8750 12.4704 5.4636 0.0000 -10644.2864 1449.4803 0.0000 0.0000 1743.3699 -7429.6272 298.1491 -9172.9971 -7368.1548 300.9644 36.2848 125.5875 29708.1309 -209.1394 -153.0127
ENERGY: 900000 1.1210 9.7550 7.2441 0.0000 -10583.9071 1445.5029 0.0000 0.0000 1779.6256 -7340.6584 304.3495 -9120.2840 -7361.1389 302.1630 -5.6674 121.2700 29980.1044 -151.2248 -79.1202
ENERGY: 1200000 5.2132 18.7898 8.4070 0.0000 -10459.8510 1347.1540 0.0000 0.0000 1810.6058 -7269.6813 309.6477 -9080.2871 -7347.0107 303.1228 -295.6237 -220.4803 29663.5618 -2.2054 68.8095
ENERGY: 1500000 2.4227 11.5182 7.6695 0.0000 -10580.3515 1457.3199 0.0000 0.0000 1758.4948 -7342.9262 300.7357 -9101.4210 -7358.0349 302.6717 339.2622 429.9030 29707.9024 -1.7215 65.1505
TCL: Exiting due to exit command.
