Info: SIMULATION PARAMETERS:
Info: TIMESTEP               2
Info: NUMBER OF STEPS        0
Info: STEPS PER CYCLE        10
Info: PERIODIC CELL BASIS 1  28.5184 0 0
Info: PERIODIC CELL BASIS 2  0 32.4932 0
Info: PERIODIC CELL BASIS 3  0 0 32.335
Info: PERIODIC CELL CENTER   0 0 0
Info: WRAPPING WATERS AROUND PERIODIC BOUNDARIES ON OUTPUT.
Info: WRAPPING ALL CLUSTERS AROUND PERIODIC BOUNDARIES ON OUTPUT.
Info: FIRST LDB TIMESTEP     50
Info: LAST LDB TIMESTEP     -1
Info: HOM BACKGROUND SCALING 1
Info: PME BACKGROUND SCALING 1
Info: MIN ATOMS PER PATCH    40
Info: EMPTY PATCH LOAD       40 ATOMS
Info: VELOCITY FILE          mobley_3167746_equil.vel
Info: CENTER OF MASS MOVING INITIALLY? NO
Info: DIELECTRIC             1
Info: EXCLUDE                SCALED ONE-FOUR
Info: 1-4 ELECTROSTATICS SCALED BY 0.833333
Info: MODIFIED 1-4 VDW PARAMETERS WILL BE USED
Info: DCD FILENAME           mobley_3167746_prod.dcd
Info: DCD FREQUENCY          100000
Info: DCD FIRST STEP         100000
Info: DCD FILE WILL CONTAIN UNIT CELL DATA
Info: XST FILENAME           mobley_3167746_prod.xst
Info: XST FREQUENCY          100000
Info: NO VELOCITY DCD OUTPUT
Info: NO FORCE DCD OUTPUT
Info: OUTPUT FILENAME        mobley_3167746_prod
Info: BINARY OUTPUT FILES WILL BE USED
Info: RESTART FILENAME       mobley_3167746_prod.restart
Info: RESTART FREQUENCY      100000
Info: BINARY RESTART FILES WILL BE USED
Info: CUTOFF                 9
Info: PAIRLIST DISTANCE      11
Info: PAIRLIST SHRINK RATE   0.01
Info: PAIRLIST GROW RATE     0.01
Info: PAIRLIST TRIGGER       0.3
Info: PAIRLISTS PER CYCLE    2
Info: PAIRLISTS ENABLED
Info: MARGIN                 2
Info: HYDROGEN GROUP CUTOFF  2.5
Info: PATCH DIMENSION        15.5
Info: ENERGY OUTPUT STEPS    100000
Info: ENERGY EVALUATION STEPS    100000
Info: OUTPUT ENERGY PRECISION 4
Info: CROSSTERM ENERGY INCLUDED IN DIHEDRAL
Info: TIMING OUTPUT STEPS    1000000
Info: PRESSURE OUTPUT STEPS  100000
Info: ALCHEMICAL FEP ON
Info: FEP CURRENT LAMBDA VALUE     1
Info: FEP COMPARISON LAMBDA VALUE  0.95
Info: FEP INTRA-ALCHEMICAL NON-BONDED INTERACTIONS WILL BE RETAINED
Info: FEP INTRA-ALCHEMICAL BONDED INTERACTIONS WILL BE RETAINED
Info: FEP VDW SHIFTING COEFFICIENT 5
Info: FEP ELEC. ACTIVE FOR ANNIHILATED PARTICLES BETWEEN LAMBDA = 0 AND LAMBDA = 0.5
Info: FEP ELEC. ACTIVE FOR EXNIHILATED PARTICLES BETWEEN LAMBDA = 0.5 AND LAMBDA = 1
Info: FEP VDW ACTIVE FOR ANNIHILATED PARTICLES BETWEEN LAMBDA = 0 AND LAMBDA = 1
Info: FEP VDW ACTIVE FOR EXNIHILATED PARTICLES BETWEEN LAMBDA = 0 AND LAMBDA = 1
Info: FEP BOND ACTIVE FOR ANNIHILATED PARTICLES BETWEEN LAMBDA = 1 AND LAMBDA = 1
Info: FEP BOND ACTIVE FOR EXNIHILATED PARTICLES BETWEEN LAMBDA = 0 AND LAMBDA = 0
Info: LANGEVIN DYNAMICS ACTIVE
Info: LANGEVIN TEMPERATURE   300
Info: LANGEVIN USING BBK INTEGRATOR
Info: LANGEVIN DAMPING COEFFICIENT IS 1 INVERSE PS
Info: LANGEVIN DYNAMICS APPLIED TO HYDROGENS
Info: LANGEVIN PISTON PRESSURE CONTROL ACTIVE
Info:        TARGET PRESSURE IS 1.01325 BAR
Info:     OSCILLATION PERIOD IS 50 FS
Info:             DECAY TIME IS 25 FS
Info:     PISTON TEMPERATURE IS 300 K
Info:       PRESSURE CONTROL IS GROUP-BASED
Info:    INITIAL STRAIN RATE IS 0.000834557 0.000834557 0.000834557
Info:       CELL FLUCTUATION IS ISOTROPIC
Info: PARTICLE MESH EWALD (PME) ACTIVE
Info: PME TOLERANCE               1e-06
Info: PME EWALD COEFFICIENT       0.348832
Info: PME INTERPOLATION ORDER     4
Info: PME GRID DIMENSIONS         32 36 36
Info: PME MAXIMUM GRID SPACING    1
Info: PME CALCULATION WILL BE PERFORMED ON GPU
Info: FULL ELECTROSTATIC EVALUATION FREQUENCY      2
Info: USING VERLET I (r-RESPA) MTS SCHEME.
Info: C1 SPLITTING OF LONG RANGE ELECTROSTATICS
Info: PLACING ATOMS IN PATCHES BY HYDROGEN GROUPS
Info: RIGID BONDS TO HYDROGEN : ALL
Info:         ERROR TOLERANCE : 1e-08
Info:          MAX ITERATIONS : 100
Info: RIGID WATER USING SETTLE ALGORITHM
Info: RANDOM NUMBER SEED     1744032736
Info: USE HYDROGEN BONDS?    NO
Info: Using AMBER format force field!
Info: AMBER PARM FILE        mobley_3167746.prmtop
Info: COORDINATE PDB         mobley_3167746.pdb
Info: Exclusions will be read from PARM file!
Info: SCNB (VDW SCALING)     2
Info: USING ARITHMETIC MEAN TO COMBINE L-J SIGMA PARAMETERS
Info: BINARY COORDINATES     mobley_3167746_equil.coor
Info: SUMMARY OF PARAMETERS:
Info: 4 BONDS
Info: 3 ANGLES
Info:   3 HARMONIC
Info:   0 COSINE-BASED
Info: 5 DIHEDRAL
Info: 0 IMPROPER
Info: 0 CROSSTERM
Info: 0 VDW
Info: 10 VDW_PAIRS
Info: 0 NBTHOLE_PAIRS
Info: To read alchdata from file: mobley_3167746.pdb
Info: To read alchflag data from column: 5
Info: STRUCTURE SUMMARY:
Info: 2900 ATOMS
Info: 2899 BONDS
Info: 48 ANGLES
Info: 73 DIHEDRALS
Info: 0 IMPROPERS
Info: 0 CROSSTERMS
Info: 3010 EXCLUSIONS
Info: 2892 RIGID BONDS
Info: ALCH: 0 ATOMS TO DISAPPEAR IN FINAL STATE
Info: ALCH: 26 ATOMS TO APPEAR IN FINAL STATE
Info: 5808 DEGREES OF FREEDOM
Info: 966 HYDROGEN GROUPS
Info: 4 ATOMS IN LARGEST HYDROGEN GROUP
Info: 966 MIGRATION GROUPS
Info: 4 ATOMS IN LARGEST MIGRATION GROUP
Info: TOTAL MASS = 17373.6 amu
Info: TOTAL CHARGE = 0.000100002 e
Info: MASS DENSITY = 0.962845 g/cm^3
Info: ATOM DENSITY = 0.0967847 atoms/A^3
Info: ADDED 0 IMPLICIT EXCLUSIONS
Info: NONBONDED TABLE R-SQUARED SPACING: 0.0625
Info: NONBONDED TABLE SIZE: 705 POINTS
Info: REMOVING COM VELOCITY 0.166938 0.247809 -0.210622
Info: Use 3D box decompostion in PME FFT.
Info: Updated CUDA force table with 4096 elements.
Info: Updated CUDA LJ table with 4 x 4 elements.
Info: Found 29 unique exclusion lists needing 100 bytes
TCL: Running for 1500000 steps
ETITLE: TS BOND ANGLE DIHED IMPRP ELECT VDW BOUNDARY MISC KINETIC TOTAL TEMP POTENTIAL TOTALAVG TEMPAVG PRESSURE GPRESSURE VOLUME PRESSAVG GPRESSAVG
ENERGY: 0 2.1813 16.7029 6.1341 0.0000 -10510.5589 1423.4188 0.0000 0.0000 1762.2480 -7299.8737 305.3731 -9062.1218 -7299.8737 305.3731 1.6267 83.9140 29963.4268 1.6267 83.9140
ENERGY: 300000 3.0732 7.3906 3.6918 0.0000 -10437.1137 1406.8076 0.0000 0.0000 1636.4794 -7379.6711 283.5792 -9016.1506 -7328.9767 296.6254 -195.6382 -164.0424 30206.3885 -293.3131 -209.4258
ENERGY: 600000 0.9500 8.6762 3.4304 0.0000 -10561.0083 1458.3774 0.0000 0.0000 1729.9593 -7359.6150 299.7779 -9089.5743 -7349.4372 296.2680 419.5483 371.3002 29709.8231 -214.4964 -159.5326
ENERGY: 900000 3.6537 13.4296 4.9187 0.0000 -10387.9748 1382.7875 0.0000 0.0000 1752.2144 -7230.9709 303.6344 -8983.1853 -7328.0201 297.8525 -30.6957 22.6453 29770.7578 -171.0089 -108.0561
ENERGY: 1200000 1.0280 12.4413 4.8233 0.0000 -10474.4620 1447.9358 0.0000 0.0000 1778.3920 -7229.8415 308.1707 -9008.2335 -7310.5228 300.4133 333.7153 409.9752 29984.5466 -87.4329 -27.9685
ENERGY: 1500000 2.2892 12.8373 2.7882 0.0000 -10500.9074 1420.9772 0.0000 0.0000 1773.3821 -7288.6335 307.3025 -9062.0156 -7303.9870 300.3278 36.6096 27.6875 30281.8327 -84.0363 -29.2568
TCL: Running FEP window   2: Lambda1 0.95   Lambda2 0.8999999999999999 [dLambda -0.050000000000000044]
TCL: Setting parameter firsttimestep to 0
TCL: Setting parameter alchLambda to 0.95
Info: NONBONDED TABLE R-SQUARED SPACING: 0.0625
Info: NONBONDED TABLE SIZE: 705 POINTS
TCL: Setting parameter alchLambda2 to 0.8999999999999999
Info: NONBONDED TABLE R-SQUARED SPACING: 0.0625
Info: NONBONDED TABLE SIZE: 705 POINTS
TCL: Running for 1500000 steps
ETITLE: TS BOND ANGLE DIHED IMPRP ELECT VDW BOUNDARY MISC KINETIC TOTAL TEMP POTENTIAL TOTALAVG TEMPAVG PRESSURE GPRESSURE VOLUME PRESSAVG GPRESSAVG
ENERGY: 0 2.2892 12.8373 2.7882 0.0000 -10500.9157 1421.1788 0.0000 0.0000 1772.5171 -7289.3053 307.1526 -9061.8224 -7289.3053 307.1526 -69.1969 13.0522 30281.8327 -69.1969 13.0522
ENERGY: 300000 2.9036 9.8580 7.8854 0.0000 -10389.2193 1351.8303 0.0000 0.0000 1773.4867 -7243.2553 307.3206 -9016.7420 -7288.5664 304.3518 -209.0768 -141.7948 29711.4194 12.0400 66.3393
ENERGY: 600000 2.8436 10.9179 4.2023 0.0000 -10420.8004 1404.1841 0.0000 0.0000 1740.5846 -7258.0678 301.6192 -8998.6525 -7280.3780 301.9511 -250.1118 -150.3681 30090.7841 -148.9237 -71.8879
ENERGY: 900000 1.3865 8.5325 3.5751 0.0000 -10436.6093 1399.2977 0.0000 0.0000 1762.3972 -7261.4202 305.3990 -9023.8174 -7279.2244 302.7865 145.1347 134.4345 29879.9694 -156.4310 -90.1150
ENERGY: 1200000 1.7906 18.4695 4.5140 0.0000 -10603.9492 1493.5035 0.0000 0.0000 1702.0705 -7383.6010 294.9452 -9085.6716 -7293.0182 302.1854 837.0175 846.1067 29360.5226 -50.7648 14.9002
ENERGY: 1500000 2.1586 8.5643 2.6822 0.0000 -10455.5594 1406.2986 0.0000 0.0000 1715.9057 -7319.9499 297.3426 -9035.8557 -7287.7379 301.5891 -186.4201 -125.7994 30184.7795 -96.0073 -41.1492
TCL: Running FEP window   3: Lambda1 0.8999999999999999 Lambda2 0.8499999999999999 [dLambda -0.050000000000000044]
TCL: Setting parameter firsttimestep to 0
TCL: Setting parameter alchLambda to 0.8999999999999999
Info: NONBONDED TABLE R-SQUARED SPACING: 0.0625
Info: NONBONDED TABLE SIZE: 705 POINTS
TCL: Setting parameter alchLambda2 to 0.8499999999999999
Info: NONBONDED TABLE R-SQUARED SPACING: 0.0625
Info: NONBONDED TABLE SIZE: 705 POINTS
TCL: Running for 1500000 steps
ETITLE: TS BOND ANGLE DIHED IMPRP ELECT VDW BOUNDARY MISC KINETIC TOTAL TEMP POTENTIAL TOTALAVG TEMPAVG PRESSURE GPRESSURE VOLUME PRESSAVG GPRESSAVG
ENERGY: 0 2.1586 8.5643 2.6822 0.0000 -10455.5226 1406.3504 0.0000 0.0000 1715.0586 -7320.7086 297.1958 -9035.7671 -7320.7086 297.1958 -236.8818 -141.7962 30184.7795 -236.8818 -141.7962
ENERGY: 300000 2.1437 14.6067 5.4591 0.0000 -10312.1731 1314.2132 0.0000 0.0000 1752.5720 -7223.1785 303.6964 -8975.7505 -7291.4419 303.6710 -521.3796 -470.8208 29821.9465 -198.1015 -119.0721
ENERGY: 600000 1.6793 13.2229 3.9571 0.0000 -10366.8970 1304.7258 0.0000 0.0000 1718.2407 -7325.0711 297.7473 -9043.3119 -7301.0865 302.1931 -762.6673 -727.4880 29910.0493 -83.5912 -22.1913
ENERGY: 900000 1.8230 11.5246 3.1286 0.0000 -10460.4938 1470.5691 0.0000 0.0000 1654.4558 -7318.9926 286.6942 -8973.4484 -7297.5241 300.7357 856.0843 815.8020 29828.4338 -59.7275 -9.3589
ENERGY: 1200000 0.8384 15.0066 5.1399 0.0000 -10536.6865 1457.1002 0.0000 0.0000 1748.5121 -7310.0894 302.9929 -9058.6015 -7293.6205 301.7336 680.9096 715.3878 29320.3337 58.6313 114.3580
ENERGY: 1500000 3.3171 16.4031 3.9443 0.0000 -10472.0569 1388.4010 0.0000 0.0000 1716.4348 -7343.5565 297.4343 -9059.9913 -7301.0830 300.9463 -145.3457 -131.4124 29669.5641 72.2851 125.7903
TCL: Running FEP window   4: Lambda1 0.8499999999999999 Lambda2 0.7999999999999998 [dLambda -0.050000000000000044]
TCL: Setting parameter firsttimestep to 0
TCL: Setting parameter alchLambda to 0.8499999999999999
Info: NONBONDED TABLE R-SQUARED SPACING: 0.0625
Info: NONBONDED TABLE SIZE: 705 POINTS
TCL: Setting parameter alchLambda2 to 0.7999999999999998
Info: NONBONDED TABLE R-SQUARED SPACING: 0.0625
Info: NONBONDED TABLE SIZE: 705 POINTS
TCL: Running for 1500000 steps
ETITLE: TS BOND ANGLE DIHED IMPRP ELECT VDW BOUNDARY MISC KINETIC TOTAL TEMP POTENTIAL TOTALAVG TEMPAVG PRESSURE GPRESSURE VOLUME PRESSAVG GPRESSAVG
ENERGY: 0 3.3171 16.4031 3.9443 0.0000 -10472.0646 1388.8869 0.0000 0.0000 1715.5849 -7343.9283 297.2870 -9059.5132 -7343.9283 297.2870 -223.3526 -137.2226 29669.5641 -223.3526 -137.2226
ENERGY: 300000 1.6209 13.4859 3.5304 0.0000 -10504.9643 1444.1711 0.0000 0.0000 1720.8929 -7321.2631 298.2069 -9042.1560 -7308.4476 295.0896 257.2080 240.1987 29991.6842 85.2331 129.0066
ENERGY: 600000 1.6905 11.8620 2.9179 0.0000 -10437.6031 1373.6795 0.0000 0.0000 1651.4542 -7395.9990 286.1741 -9047.4531 -7310.1500 296.4745 -678.8372 -660.2103 30373.6340 -47.8800 15.0249
ENERGY: 900000 1.9492 12.5927 3.5902 0.0000 -10494.7121 1435.2843 0.0000 0.0000 1718.8211 -7322.4746 297.8478 -9041.2957 -7313.0926 297.0103 336.5367 391.3058 29449.6122 146.6662 214.1892
ENERGY: 1200000 1.6211 14.3128 4.8726 0.0000 -10487.3052 1396.0879 0.0000 0.0000 1732.5625 -7337.8483 300.2290 -9070.4108 -7321.2541 297.4049 -62.7106 -5.8112 29858.9099 138.2643 205.2626
ENERGY: 1500000 3.8413 11.8648 3.6352 0.0000 -10422.4641 1351.6059 0.0000 0.0000 1778.0522 -7273.4647 308.1118 -9051.5168 -7315.5508 297.8915 -206.6736 -133.4760 29420.9233 132.1900 195.7182
TCL: Running FEP window   5: Lambda1 0.7999999999999998 Lambda2 0.7499999999999998 [dLambda -0.050000000000000044]
TCL: Setting parameter firsttimestep to 0
TCL: Setting parameter alchLambda to 0.7999999999999998
Info: NONBONDED TABLE R-SQUARED SPACING: 0.0625
Info: NONBONDED TABLE SIZE: 705 POINTS
TCL: Setting parameter alchLambda2 to 0.7499999999999998
Info: NONBONDED TABLE R-SQUARED SPACING: 0.0625
Info: NONBONDED TABLE SIZE: 705 POINTS
TCL: Running for 1500000 steps
ETITLE: TS BOND ANGLE DIHED IMPRP ELECT VDW BOUNDARY MISC KINETIC TOTAL TEMP POTENTIAL TOTALAVG TEMPAVG PRESSURE GPRESSURE VOLUME PRESSAVG GPRESSAVG
ENERGY: 0 3.8413 11.8648 3.6352 0.0000 -10422.4404 1351.8340 0.0000 0.0000 1777.2108 -7274.0542 307.9660 -9051.2651 -7274.0542 307.9660 -229.9005 -144.9054 29420.9233 -229.9005 -144.9054
ENERGY: 300000 1.0775 14.1611 3.2705 0.0000 -10434.0550 1321.6348 0.0000 0.0000 1710.7538 -7383.1573 296.4499 -9093.9110 -7334.5038 297.7370 -1040.9161 -950.1081 30186.8358 -175.0330 -108.2739
ENERGY: 600000 5.1641 15.1211 4.1841 0.0000 -10406.6147 1331.6244 0.0000 0.0000 1719.2840 -7331.2371 297.9281 -9050.5211 -7329.1173 297.6708 -695.5831 -655.2169 29646.7398 -271.2839 -212.0260
ENERGY: 900000 1.9777 14.5706 3.5359 0.0000 -10424.6752 1391.9327 0.0000 0.0000 1674.0551 -7338.6032 290.0905 -9012.6583 -7320.4560 297.8776 -230.7827 -112.6456 29872.7147 -321.6194 -251.5127
ENERGY: 1200000 2.3199 10.8687 5.5918 0.0000 -10595.0384 1476.9027 0.0000 0.0000 1756.8720 -7342.4834 304.4415 -9099.3554 -7334.8932 297.2526 520.5204 583.1908 29613.3319 -193.1569 -119.4789
ENERGY: 1500000 4.6365 12.1656 3.8446 0.0000 -10386.2295 1388.3862 0.0000 0.0000 1770.6852 -7206.5114 306.8352 -8977.1966 -7326.9359 297.9590 361.6106 384.4182 29499.6528 -75.9356 -8.1691
TCL: Running FEP window   6: Lambda1 0.7499999999999998 Lambda2 0.6999999999999997 [dLambda -0.050000000000000044]
TCL: Setting parameter firsttimestep to 0
TCL: Setting parameter alchLambda to 0.7499999999999998
Info: NONBONDED TABLE R-SQUARED SPACING: 0.0625
Info: NONBONDED TABLE SIZE: 705 POINTS
TCL: Setting parameter alchLambda2 to 0.6999999999999997
Info: NONBONDED TABLE R-SQUARED SPACING: 0.0625
Info: NONBONDED TABLE SIZE: 705 POINTS
TCL: Running for 1500000 steps
ETITLE: TS BOND ANGLE DIHED IMPRP ELECT VDW BOUNDARY MISC KINETIC TOTAL TEMP POTENTIAL TOTALAVG TEMPAVG PRESSURE GPRESSURE VOLUME PRESSAVG GPRESSAVG
ENERGY: 0 4.6365 12.1656 3.8446 0.0000 -10386.2382 1388.7043 0.0000 0.0000 1769.8320 -7207.0551 306.6873 -8976.8872 -7207.0551 306.6873 295.5493 378.7832 29499.6528 295.5493 378.7832
ENERGY: 300000 2.3799 15.5740 4.0740 0.0000 -10461.9066 1366.8921 0.0000 0.0000 1713.2242 -7359.7623 296.8780 -9072.9865 -7346.4921 299.9962 -253.2216 -213.4909 29669.7015 -62.9176 -32.7474
ENERGY: 600000 1.4430 12.4145 4.2651 0.0000 -10435.9650 1339.5611 0.0000 0.0000 1732.7541 -7345.5273 300.2622 -9078.2814 -7318.2449 303.2369 -595.9357 -540.0733 29639.3891 -197.3937 -161.9535
ENERGY: 900000 2.3304 15.3463 5.2319 0.0000 -10576.1063 1476.7930 0.0000 0.0000 1748.6417 -7327.7631 303.0153 -9076.4047 -7314.5155 302.4720 591.1648 662.5561 29544.3546 -142.7848 -92.5844
ENERGY: 1200000 1.8244 13.8307 6.2438 0.0000 -10453.5982 1394.2938 0.0000 0.0000 1754.4152 -7282.9904 304.0158 -9037.4056 -7316.0088 302.0815 106.2647 114.8396 29582.3754 -181.5160 -130.0462
ENERGY: 1500000 1.6700 14.2555 4.0872 0.0000 -10405.7004 1349.5030 0.0000 0.0000 1693.8703 -7342.3144 293.5242 -9036.1848 -7308.9848 302.0554 -198.3262 -173.0607 29319.0461 -84.8506 -39.2400
TCL: Running FEP window   7: Lambda1 0.6999999999999997 Lambda2 0.6499999999999997 [dLambda -0.050000000000000044]
TCL: Setting parameter firsttimestep to 0
TCL: Setting parameter alchLambda to 0.6999999999999997
Info: NONBONDED TABLE R-SQUARED SPACING: 0.0625
Info: NONBONDED TABLE SIZE: 705 POINTS
TCL: Setting parameter alchLambda2 to 0.6499999999999997
Info: NONBONDED TABLE R-SQUARED SPACING: 0.0625
Info: NONBONDED TABLE SIZE: 705 POINTS
TCL: Running for 1500000 steps
ETITLE: TS BOND ANGLE DIHED IMPRP ELECT VDW BOUNDARY MISC KINETIC TOTAL TEMP POTENTIAL TOTALAVG TEMPAVG PRESSURE GPRESSURE VOLUME PRESSAVG GPRESSAVG
ENERGY: 0 1.6700 14.2555 4.0872 0.0000 -10405.6879 1349.6504 0.0000 0.0000 1693.0173 -7343.0075 293.3764 -9036.0249 -7343.0075 293.3764 -264.2240 -189.0371 29319.0461 -264.2240 -189.0371
ENERGY: 300000 1.4312 16.9720 5.1397 0.0000 -10469.5312 1379.0714 0.0000 0.0000 1731.8021 -7335.1148 300.0973 -9066.9169 -7318.6871 296.7873 -372.2622 -324.7870 29995.8935 8.1882 67.9484
ENERGY: 600000 2.7498 9.0728 3.9205 0.0000 -10526.0867 1457.1303 0.0000 0.0000 1743.6343 -7309.5790 302.1476 -9053.2133 -7322.7528 297.4901 244.1636 280.3595 30145.4824 268.7133 329.2362
ENERGY: 900000 0.8718 14.7759 3.9578 0.0000 -10447.8799 1440.3730 0.0000 0.0000 1741.1935 -7246.7078 301.7247 -8987.9013 -7315.3676 298.9592 254.0058 356.6429 29890.4540 187.8090 260.3022
ENERGY: 1200000 2.5081 10.7375 4.9858 0.0000 -10580.0862 1448.0456 0.0000 0.0000 1773.7335 -7340.0757 307.3634 -9113.8092 -7297.9756 300.0513 101.5563 202.3023 29482.1467 66.9900 142.3251
ENERGY: 1500000 0.9529 16.6686 4.0859 0.0000 -10463.8986 1356.5709 0.0000 0.0000 1731.4411 -7354.1793 300.0347 -9085.6204 -7293.2978 299.7812 -253.1755 -195.2439 29282.2278 60.7096 140.6732
TCL: Running FEP window   8: Lambda1 0.6499999999999997 Lambda2 0.5999999999999996 [dLambda -0.050000000000000044]
TCL: Setting parameter firsttimestep to 0
TCL: Setting parameter alchLambda to 0.6499999999999997
Info: NONBONDED TABLE R-SQUARED SPACING: 0.0625
Info: NONBONDED TABLE SIZE: 705 POINTS
TCL: Setting parameter alchLambda2 to 0.5999999999999996
Info: NONBONDED TABLE R-SQUARED SPACING: 0.0625
Info: NONBONDED TABLE SIZE: 705 POINTS
TCL: Running for 1500000 steps
ETITLE: TS BOND ANGLE DIHED IMPRP ELECT VDW BOUNDARY MISC KINETIC TOTAL TEMP POTENTIAL TOTALAVG TEMPAVG PRESSURE GPRESSURE VOLUME PRESSAVG GPRESSAVG
ENERGY: 0 0.9529 16.6686 4.0859 0.0000 -10463.8759 1357.1119 0.0000 0.0000 1730.5858 -7354.4708 299.8865 -9085.0566 -7354.4708 299.8865 -289.6678 -202.0530 29282.2278 -289.6678 -202.0530
ENERGY: 300000 1.9695 8.8641 3.8216 0.0000 -10528.4322 1497.4827 0.0000 0.0000 1744.9985 -7271.2958 302.3840 -9016.2943 -7286.1573 305.1748 716.4650 786.7944 29797.7438 120.8671 204.6355
ENERGY: 600000 2.0036 13.4379 3.3505 0.0000 -10522.8671 1435.3181 0.0000 0.0000 1680.9723 -7387.7848 291.2892 -9068.7571 -7286.2810 302.8231 0.5823 68.1740 29772.7482 -157.8125 -73.1793
ENERGY: 900000 5.2586 20.4565 4.3951 0.0000 -10425.8179 1335.5325 0.0000 0.0000 1793.3231 -7266.8521 310.7580 -9060.1752 -7292.8147 303.2420 -645.2286 -608.8217 29797.2891 -100.0393 -17.6335
ENERGY: 1200000 1.2581 8.4385 5.4292 0.0000 -10452.7498 1350.4813 0.0000 0.0000 1749.3835 -7337.7592 303.1439 -9087.1428 -7298.3432 303.2980 -387.9779 -357.2331 29760.6772 -50.1872 23.9792
ENERGY: 1500000 4.2441 9.5280 4.4474 0.0000 -10432.2331 1381.7796 0.0000 0.0000 1683.7598 -7348.4741 291.7722 -9032.2339 -7308.7334 301.6409 -378.0250 -320.4021 29765.3202 -55.4129 18.0448
TCL: Running FEP window   9: Lambda1 0.5999999999999996 Lambda2 0.5499999999999996 [dLambda -0.050000000000000044]
TCL: Setting parameter firsttimestep to 0
TCL: Setting parameter alchLambda to 0.5999999999999996
Info: NONBONDED TABLE R-SQUARED SPACING: 0.0625
Info: NONBONDED TABLE SIZE: 705 POINTS
TCL: Setting parameter alchLambda2 to 0.5499999999999996
Info: NONBONDED TABLE R-SQUARED SPACING: 0.0625
Info: NONBONDED TABLE SIZE: 705 POINTS
TCL: Running for 1500000 steps
ETITLE: TS BOND ANGLE DIHED IMPRP ELECT VDW BOUNDARY MISC KINETIC TOTAL TEMP POTENTIAL TOTALAVG TEMPAVG PRESSURE GPRESSURE VOLUME PRESSAVG GPRESSAVG
ENERGY: 0 4.2441 9.5280 4.4474 0.0000 -10432.1952 1382.4317 0.0000 0.0000 1682.9066 -7348.6373 291.6244 -9031.5439 -7348.6373 291.6244 -409.7209 -321.6113 29765.3202 -409.7209 -321.6113
ENERGY: 300000 2.4015 13.9678 5.5295 0.0000 -10549.9831 1503.5345 0.0000 0.0000 1681.9243 -7342.6254 291.4541 -9024.5498 -7325.4807 293.7573 989.7941 1022.1611 29512.6671 140.1521 206.2380
ENERGY: 600000 1.9763 13.3125 3.4537 0.0000 -10484.3691 1414.5856 0.0000 0.0000 1719.3731 -7331.6680 297.9435 -9051.0410 -7315.8316 295.1601 16.5389 2.7131 29773.6516 7.2190 52.6788
ENERGY: 900000 3.6192 15.7724 4.6450 0.0000 -10487.2781 1420.0343 0.0000 0.0000 1767.1194 -7276.0878 306.2173 -9043.2072 -7309.9872 296.5694 -236.9723 -112.9578 30337.5815 -92.3991 -42.0985
ENERGY: 1200000 2.7532 9.2495 3.4221 0.0000 -10509.4740 1458.6199 0.0000 0.0000 1714.4803 -7320.9490 297.0956 -9035.4293 -7297.7875 297.3617 351.9780 461.9536 29702.5927 -52.5375 2.6025
ENERGY: 1500000 3.7430 12.2134 3.8036 0.0000 -10500.0554 1391.1331 0.0000 0.0000 1701.2513 -7387.9111 294.8032 -9089.1623 -7296.4314 298.5955 -319.2806 -239.2932 29468.2960 -55.5805 -5.3285
TCL: Running FEP window  10: Lambda1 0.5499999999999996 Lambda2 0.4999999999999996 [dLambda -0.04999999999999999]
TCL: Setting parameter firsttimestep to 0
TCL: Setting parameter alchLambda to 0.5499999999999996
Info: NONBONDED TABLE R-SQUARED SPACING: 0.0625
Info: NONBONDED TABLE SIZE: 705 POINTS
TCL: Setting parameter alchLambda2 to 0.4999999999999996
Info: NONBONDED TABLE R-SQUARED SPACING: 0.0625
Info: NONBONDED TABLE SIZE: 705 POINTS
TCL: Running for 1500000 steps
ETITLE: TS BOND ANGLE DIHED IMPRP ELECT VDW BOUNDARY MISC KINETIC TOTAL TEMP POTENTIAL TOTALAVG TEMPAVG PRESSURE GPRESSURE VOLUME PRESSAVG GPRESSAVG
ENERGY: 0 3.7430 12.2134 3.8036 0.0000 -10500.0951 1391.7674 0.0000 0.0000 1700.3679 -7388.1997 294.6502 -9088.5676 -7388.1997 294.6502 -325.7494 -246.9015 29468.2960 -325.7494 -246.9015
ENERGY: 300000 2.8486 13.2639 4.1489 0.0000 -10369.3425 1340.5399 0.0000 0.0000 1764.6318 -7243.9094 305.7862 -9008.5412 -7328.7153 299.1879 -269.4947 -170.0507 29521.9153 -188.8578 -80.0059
ENERGY: 600000 2.9391 12.2048 3.5920 0.0000 -10586.9250 1496.2456 0.0000 0.0000 1745.7171 -7326.2263 302.5085 -9071.9434 -7320.5953 299.3086 735.2527 804.9762 29446.6960 -43.3481 47.2604
ENERGY: 900000 1.8319 12.8476 3.5980 0.0000 -10442.0805 1393.3221 0.0000 0.0000 1707.1109 -7323.3699 295.8186 -9030.4809 -7320.3381 299.6376 -203.4700 -143.6278 29730.9127 -164.7633 -76.7997
ENERGY: 1200000 1.7226 17.1746 5.1304 0.0000 -10342.6170 1369.7660 0.0000 0.0000 1709.3275 -7239.4959 296.2027 -8948.8235 -7311.1027 299.3094 -66.4294 127.7890 29846.5811 -126.7556 -38.1013
ENERGY: 1500000 0.5435 7.4935 5.4476 0.0000 -10367.1248 1332.8830 0.0000 0.0000 1715.8097 -7304.9475 297.3260 -9020.7572 -7309.3040 299.3297 -425.7677 -352.4446 29792.4281 -115.2022 -24.8702
TCL: Running FEP window  11: Lambda1 0.4999999999999996 Lambda2 0.4499999999999996 [dLambda -0.04999999999999999]
TCL: Setting parameter firsttimestep to 0
TCL: Setting parameter alchLambda to 0.4999999999999996
Info: NONBONDED TABLE R-SQUARED SPACING: 0.0625
Info: NONBONDED TABLE SIZE: 705 POINTS
TCL: Setting parameter alchLambda2 to 0.4499999999999996
Info: NONBONDED TABLE R-SQUARED SPACING: 0.0625
Info: NONBONDED TABLE SIZE: 705 POINTS
TCL: Running for 1500000 steps
ETITLE: TS BOND ANGLE DIHED IMPRP ELECT VDW BOUNDARY MISC KINETIC TOTAL TEMP POTENTIAL TOTALAVG TEMPAVG PRESSURE GPRESSURE VOLUME PRESSAVG GPRESSAVG
ENERGY: 0 0.5435 7.4935 5.4476 0.0000 -10367.2043 1333.5923 0.0000 0.0000 1714.9289 -7305.1985 297.1734 -9020.1274 -7305.1985 297.1734 -451.0623 -354.2053 29792.4281 -451.0623 -354.2053
ENERGY: 300000 2.1249 8.3486 3.1724 0.0000 -10515.2106 1463.0172 0.0000 0.0000 1707.1399 -7331.4076 295.8237 -9038.5476 -7310.2487 299.7449 516.6797 561.9277 29609.5840 173.1526 248.3210
ENERGY: 600000 1.6773 10.2883 5.9272 0.0000 -10426.6022 1435.0519 0.0000 0.0000 1728.7761 -7244.8814 299.5729 -8973.6575 -7283.0276 301.4798 444.2681 579.6086 29813.4557 170.1753 257.0248
ENERGY: 900000 2.6172 11.3849 5.8811 0.0000 -10528.5928 1470.4139 0.0000 0.0000 1740.2866 -7298.0091 301.5675 -9038.2957 -7295.1712 300.6043 468.8766 502.8794 29597.5663 106.3594 182.0585
ENERGY: 1200000 1.2381 11.4903 5.3432 0.0000 -10613.5653 1492.4570 0.0000 0.0000 1680.8194 -7422.2173 291.2627 -9103.0367 -7299.1038 300.1500 687.5018 739.1173 29231.5572 116.0617 183.6373
ENERGY: 1500000 4.3389 10.5999 4.4456 0.0000 -10563.7840 1512.0739 0.0000 0.0000 1784.6813 -7247.6443 309.2605 -9032.3256 -7295.6922 300.4773 782.9215 854.7407 29589.0036 108.6788 171.6756
TCL: Running FEP window  12: Lambda1 0.4499999999999996 Lambda2 0.39999999999999963 [dLambda -0.04999999999999999]
TCL: Setting parameter firsttimestep to 0
TCL: Setting parameter alchLambda to 0.4499999999999996
Info: NONBONDED TABLE R-SQUARED SPACING: 0.0625
Info: NONBONDED TABLE SIZE: 705 POINTS
TCL: Setting parameter alchLambda2 to 0.39999999999999963
Info: NONBONDED TABLE R-SQUARED SPACING: 0.0625
Info: NONBONDED TABLE SIZE: 705 POINTS
TCL: Running for 1500000 steps
ETITLE: TS BOND ANGLE DIHED IMPRP ELECT VDW BOUNDARY MISC KINETIC TOTAL TEMP POTENTIAL TOTALAVG TEMPAVG PRESSURE GPRESSURE VOLUME PRESSAVG GPRESSAVG
ENERGY: 0 4.3389 10.5999 4.4456 0.0000 -10563.7837 1512.4258 0.0000 0.0000 1783.8230 -7248.1504 309.1118 -9031.9734 -7248.1504 309.1118 757.9534 851.8015 29589.0036 757.9534 851.8015
ENERGY: 300000 1.1300 16.1037 5.5553 0.0000 -10449.3561 1391.5262 0.0000 0.0000 1767.8361 -7267.2047 306.3415 -9035.0408 -7327.1846 301.2332 202.7572 161.0013 29381.7245 187.0945 238.7567
ENERGY: 600000 2.9029 12.1444 3.8537 0.0000 -10407.4717 1417.8887 0.0000 0.0000 1798.5823 -7172.0996 311.6693 -8970.6819 -7307.5069 302.0362 -26.4594 11.3988 30359.3845 35.2453 75.6006
ENERGY: 900000 4.1519 9.6003 3.0493 0.0000 -10500.9491 1417.3958 0.0000 0.0000 1669.6853 -7397.0665 289.3333 -9066.7518 -7316.7347 299.4812 -80.9163 -93.1705 29738.9393 -28.6319 11.4055
ENERGY: 1200000 3.4707 15.3118 6.2673 0.0000 -10380.8502 1379.6560 0.0000 0.0000 1732.6219 -7243.5225 300.2393 -8976.1444 -7302.5387 300.2909 87.1379 127.5065 29330.5242 -44.7124 -4.4850
ENERGY: 1500000 2.5903 13.0771 5.3489 0.0000 -10488.1537 1424.8382 0.0000 0.0000 1753.2099 -7289.0893 303.8069 -9042.2992 -7307.3101 300.4668 255.2512 340.8126 29328.3123 37.7551 84.3501
TCL: Running FEP window  13: Lambda1 0.39999999999999963 Lambda2 0.34999999999999964 [dLambda -0.04999999999999999]
TCL: Setting parameter firsttimestep to 0
TCL: Setting parameter alchLambda to 0.39999999999999963
Info: NONBONDED TABLE R-SQUARED SPACING: 0.0625
Info: NONBONDED TABLE SIZE: 705 POINTS
TCL: Setting parameter alchLambda2 to 0.34999999999999964
Info: NONBONDED TABLE R-SQUARED SPACING: 0.0625
Info: NONBONDED TABLE SIZE: 705 POINTS
TCL: Running for 1500000 steps
ETITLE: TS BOND ANGLE DIHED IMPRP ELECT VDW BOUNDARY MISC KINETIC TOTAL TEMP POTENTIAL TOTALAVG TEMPAVG PRESSURE GPRESSURE VOLUME PRESSAVG GPRESSAVG
ENERGY: 0 2.5903 13.0771 5.3489 0.0000 -10488.1544 1425.0962 0.0000 0.0000 1752.3635 -7289.6784 303.6603 -9042.0419 -7289.6784 303.6603 249.1412 336.4645 29328.3123 249.1412 336.4645
ENERGY: 300000 2.7064 6.2402 3.2545 0.0000 -10432.3058 1350.2894 0.0000 0.0000 1755.9725 -7313.8429 304.2857 -9069.8154 -7292.6530 303.6926 -502.5101 -480.0310 29838.1171 -201.5675 -168.0032
ENERGY: 600000 1.9723 15.2460 3.7208 0.0000 -10502.8531 1419.7981 0.0000 0.0000 1700.8215 -7361.2943 294.7288 -9062.1158 -7294.2708 303.4336 -82.6265 -75.9766 29770.1951 -287.0913 -248.9281
ENERGY: 900000 2.0973 8.6328 4.4713 0.0000 -10579.4987 1477.7243 0.0000 0.0000 1752.6758 -7333.8973 303.7144 -9086.5730 -7299.3844 302.6107 480.7577 462.4100 29487.7181 -291.1687 -247.3932
ENERGY: 1200000 1.4718 11.8029 3.8520 0.0000 -10474.6705 1413.5019 0.0000 0.0000 1683.5384 -7360.5035 291.7338 -9044.0419 -7306.6021 301.6431 -64.8955 -28.9086 29937.0572 -224.4157 -185.2381
ENERGY: 1500000 2.3441 9.7657 4.3061 0.0000 -10383.0944 1353.7337 0.0000 0.0000 1766.0891 -7246.8556 306.0387 -9012.9448 -7294.4875 302.4780 -384.2225 -293.5620 29714.9476 -126.3448 -84.9664
TCL: Running FEP window  14: Lambda1 0.34999999999999964 Lambda2 0.29999999999999966 [dLambda -0.04999999999999999]
TCL: Setting parameter firsttimestep to 0
TCL: Setting parameter alchLambda to 0.34999999999999964
Info: NONBONDED TABLE R-SQUARED SPACING: 0.0625
Info: NONBONDED TABLE SIZE: 705 POINTS
TCL: Setting parameter alchLambda2 to 0.29999999999999966
Info: NONBONDED TABLE R-SQUARED SPACING: 0.0625
Info: NONBONDED TABLE SIZE: 705 POINTS
TCL: Running for 1500000 steps
ETITLE: TS BOND ANGLE DIHED IMPRP ELECT VDW BOUNDARY MISC KINETIC TOTAL TEMP POTENTIAL TOTALAVG TEMPAVG PRESSURE GPRESSURE VOLUME PRESSAVG GPRESSAVG
ENERGY: 0 2.3441 9.7657 4.3061 0.0000 -10383.0939 1354.0068 0.0000 0.0000 1765.2109 -7247.4603 305.8866 -9012.6712 -7247.4603 305.8866 -392.7161 -298.1385 29714.9476 -392.7161 -298.1385
ENERGY: 300000 4.7275 14.9958 4.7058 0.0000 -10532.6125 1452.0159 0.0000 0.0000 1773.9326 -7282.2349 307.3979 -9056.1675 -7290.9260 301.1122 373.8791 403.0994 29513.1312 -111.9146 -57.6970
ENERGY: 600000 2.4463 12.1110 4.0819 0.0000 -10451.5906 1395.7653 0.0000 0.0000 1704.8847 -7332.3013 295.4329 -9037.1860 -7296.6938 299.5972 -169.0924 -102.4546 29624.4148 -137.1827 -80.3774
ENERGY: 900000 1.0536 11.9316 3.8227 0.0000 -10467.5758 1441.8889 0.0000 0.0000 1760.3698 -7248.5093 305.0477 -9008.8791 -7285.0297 301.0834 295.7701 341.3556 29508.5533 82.1084 127.6155
ENERGY: 1200000 4.3631 14.1574 5.3027 0.0000 -10485.9900 1448.2019 0.0000 0.0000 1697.5718 -7316.3931 294.1656 -9013.9648 -7293.2011 300.0492 313.1161 383.7930 29337.7807 53.1387 98.7626
ENERGY: 1500000 1.6368 13.1759 5.8045 0.0000 -10440.5494 1423.8302 0.0000 0.0000 1741.7826 -7254.3193 301.8268 -8996.1020 -7291.0752 299.9121 228.7720 281.4141 30041.2481 73.5802 120.2147
TCL: Running FEP window  15: Lambda1 0.29999999999999966 Lambda2 0.24999999999999967 [dLambda -0.04999999999999999]
TCL: Setting parameter firsttimestep to 0
TCL: Setting parameter alchLambda to 0.29999999999999966
Info: NONBONDED TABLE R-SQUARED SPACING: 0.0625
Info: NONBONDED TABLE SIZE: 705 POINTS
TCL: Setting parameter alchLambda2 to 0.24999999999999967
Info: NONBONDED TABLE R-SQUARED SPACING: 0.0625
Info: NONBONDED TABLE SIZE: 705 POINTS
TCL: Running for 1500000 steps
ETITLE: TS BOND ANGLE DIHED IMPRP ELECT VDW BOUNDARY MISC KINETIC TOTAL TEMP POTENTIAL TOTALAVG TEMPAVG PRESSURE GPRESSURE VOLUME PRESSAVG GPRESSAVG
ENERGY: 0 1.6368 13.1759 5.8045 0.0000 -10440.5495 1424.1094 0.0000 0.0000 1740.9272 -7254.8956 301.6785 -8995.8228 -7254.8956 301.6785 193.4226 275.1366 30041.2481 193.4226 275.1366
ENERGY: 300000 2.0611 9.8710 3.0451 0.0000 -10474.0821 1389.6535 0.0000 0.0000 1781.6931 -7287.7583 308.7427 -9069.4514 -7273.1351 303.4439 -271.0490 -234.8460 29665.8855 -199.3052 -131.0849
ENERGY: 600000 0.8971 8.4295 4.1058 0.0000 -10642.7864 1516.5083 0.0000 0.0000 1740.3756 -7372.4700 301.5829 -9112.8457 -7312.2375 300.6823 759.8596 843.9915 29574.8608 -144.3078 -83.8843
ENERGY: 900000 1.6542 11.8970 4.3842 0.0000 -10601.3518 1513.2864 0.0000 0.0000 1785.5729 -7284.5571 309.4150 -9070.1300 -7323.5748 301.4972 544.0036 572.7598 29791.5541 -113.2181 -61.3726
ENERGY: 1200000 5.2093 10.9828 5.6999 0.0000 -10539.6593 1454.0858 0.0000 0.0000 1769.3065 -7294.3750 306.5963 -9063.6814 -7321.3527 301.0636 57.4805 151.8700 29779.1165 -137.5628 -75.3424
ENERGY: 1500000 4.5357 9.4402 4.5039 0.0000 -10507.8764 1397.7458 0.0000 0.0000 1700.2701 -7391.3808 294.6332 -9091.6509 -7317.3825 300.3801 -472.3170 -382.2834 29329.3766 -32.0053 33.1075
TCL: Running FEP window  16: Lambda1 0.24999999999999967 Lambda2 0.19999999999999968 [dLambda -0.04999999999999999]
TCL: Setting parameter firsttimestep to 0
TCL: Setting parameter alchLambda to 0.24999999999999967
Info: NONBONDED TABLE R-SQUARED SPACING: 0.0625
Info: NONBONDED TABLE SIZE: 705 POINTS
TCL: Setting parameter alchLambda2 to 0.19999999999999968
Info: NONBONDED TABLE R-SQUARED SPACING: 0.0625
Info: NONBONDED TABLE SIZE: 705 POINTS
TCL: Running for 1500000 steps
ETITLE: TS BOND ANGLE DIHED IMPRP ELECT VDW BOUNDARY MISC KINETIC TOTAL TEMP POTENTIAL TOTALAVG TEMPAVG PRESSURE GPRESSURE VOLUME PRESSAVG GPRESSAVG
ENERGY: 0 4.5357 9.4402 4.5039 0.0000 -10507.8762 1397.3484 0.0000 0.0000 1699.4025 -7392.6456 294.4829 -9092.0480 -7392.6456 294.4829 -483.4407 -390.9394 29329.3766 -483.4407 -390.9394
ENERGY: 300000 1.6865 13.1491 4.3224 0.0000 -10492.3329 1437.4636 0.0000 0.0000 1724.9083 -7310.8030 298.9027 -9035.7113 -7330.7190 297.0256 321.4317 352.4086 29735.5025 506.8977 564.2535
ENERGY: 600000 3.0848 11.3400 3.5182 0.0000 -10416.9452 1418.5694 0.0000 0.0000 1762.3440 -7218.0888 305.3897 -8980.4328 -7297.7483 299.7684 347.9511 374.0834 29544.4001 215.4327 270.7385
ENERGY: 900000 2.1952 14.2938 3.2651 0.0000 -10351.3210 1329.1282 0.0000 0.0000 1715.1899 -7287.2487 297.2186 -9002.4386 -7303.8520 298.9468 -658.2951 -599.4378 29868.3363 40.0051 86.2540
ENERGY: 1200000 3.7094 10.3487 5.2748 0.0000 -10460.0313 1352.6750 0.0000 0.0000 1668.9879 -7419.0355 289.2124 -9088.0234 -7301.5183 298.8933 -835.0804 -702.6276 29818.7076 -80.5333 -29.6583
ENERGY: 1500000 0.5713 15.1729 4.1227 0.0000 -10435.9366 1375.8627 0.0000 0.0000 1721.3957 -7318.8111 298.2940 -9040.2068 -7295.1048 298.6642 -143.2108 -142.3184 29514.4961 -69.9810 -17.8105
TCL: Running FEP window  17: Lambda1 0.19999999999999968 Lambda2 0.1499999999999997 [dLambda -0.04999999999999999]
TCL: Setting parameter firsttimestep to 0
TCL: Setting parameter alchLambda to 0.19999999999999968
Info: NONBONDED TABLE R-SQUARED SPACING: 0.0625
Info: NONBONDED TABLE SIZE: 705 POINTS
TCL: Setting parameter alchLambda2 to 0.1499999999999997
Info: NONBONDED TABLE R-SQUARED SPACING: 0.0625
Info: NONBONDED TABLE SIZE: 705 POINTS
TCL: Running for 1500000 steps
ETITLE: TS BOND ANGLE DIHED IMPRP ELECT VDW BOUNDARY MISC KINETIC TOTAL TEMP POTENTIAL TOTALAVG TEMPAVG PRESSURE GPRESSURE VOLUME PRESSAVG GPRESSAVG
ENERGY: 0 0.5713 15.1729 4.1227 0.0000 -10435.9354 1376.2968 0.0000 0.0000 1720.5255 -7319.2460 298.1432 -9039.7716 -7319.2460 298.1432 -223.2599 -141.9802 29514.4961 -223.2599 -141.9802
ENERGY: 300000 3.2406 9.5672 4.8965 0.0000 -10486.0776 1414.7168 0.0000 0.0000 1734.5545 -7319.1019 300.5742 -9053.6564 -7332.0127 300.0363 35.4096 144.2905 29637.5721 -103.4800 -42.4152
ENERGY: 600000 3.5041 9.4233 5.2667 0.0000 -10548.6413 1494.1401 0.0000 0.0000 1718.6278 -7317.6792 297.8143 -9036.3071 -7303.5426 300.8733 660.0264 707.4484 29422.9515 -64.1434 -4.6915
ENERGY: 900000 2.6723 14.7600 3.5187 0.0000 -10494.1376 1432.1814 0.0000 0.0000 1734.5250 -7306.4802 300.5691 -9041.0052 -7310.1450 300.3117 398.0156 498.5440 29402.4059 79.5196 145.0575
ENERGY: 1200000 1.6989 8.7610 4.2953 0.0000 -10581.1721 1539.2936 0.0000 0.0000 1723.4678 -7303.6555 298.6530 -9027.1233 -7306.7423 299.6298 1072.6959 1110.4992 29442.7937 117.7437 180.6724
ENERGY: 1500000 3.2835 12.0173 5.5357 0.0000 -10322.8968 1348.7773 0.0000 0.0000 1732.1589 -7221.1241 300.1591 -8953.2830 -7306.0068 299.5694 -667.5491 -500.4808 30089.2383 85.2891 158.5517
TCL: Running FEP window  18: Lambda1 0.1499999999999997 Lambda2 0.09999999999999969 [dLambda -0.05 ]
TCL: Setting parameter firsttimestep to 0
TCL: Setting parameter alchLambda to 0.1499999999999997
Info: NONBONDED TABLE R-SQUARED SPACING: 0.0625
Info: NONBONDED TABLE SIZE: 705 POINTS
TCL: Setting parameter alchLambda2 to 0.09999999999999969
Info: NONBONDED TABLE R-SQUARED SPACING: 0.0625
Info: NONBONDED TABLE SIZE: 705 POINTS
TCL: Running for 1500000 steps
ETITLE: TS BOND ANGLE DIHED IMPRP ELECT VDW BOUNDARY MISC KINETIC TOTAL TEMP POTENTIAL TOTALAVG TEMPAVG PRESSURE GPRESSURE VOLUME PRESSAVG GPRESSAVG
ENERGY: 0 3.2835 12.0173 5.5357 0.0000 -10322.8970 1348.7076 0.0000 0.0000 1731.2676 -7222.0852 300.0047 -8953.3529 -7222.0852 300.0047 -589.8608 -505.7981 30089.2383 -589.8608 -505.7981
ENERGY: 300000 1.8683 6.0638 5.1842 0.0000 -10441.5448 1413.7817 0.0000 0.0000 1776.4829 -7238.1638 307.8398 -9014.6467 -7259.9385 300.1741 -219.8415 -126.9405 30223.0751 -594.8812 -516.4546
ENERGY: 600000 3.8525 11.4886 4.5264 0.0000 -10563.7066 1569.5488 0.0000 0.0000 1707.7155 -7266.5749 295.9234 -8974.2904 -7263.8634 298.7826 1263.7392 1293.4840 29715.9523 -215.7180 -134.6546
ENERGY: 900000 2.8711 9.8257 6.8437 0.0000 -10349.6003 1319.7179 0.0000 0.0000 1776.1751 -7234.1669 307.7865 -9010.3419 -7264.6170 299.9551 -824.3236 -744.7495 29937.0490 -246.3569 -177.1919
ENERGY: 1200000 1.1316 10.3284 4.5465 0.0000 -10412.8003 1346.6834 0.0000 0.0000 1698.2666 -7351.8439 294.2860 -9050.1105 -7268.4767 298.9874 -704.8655 -638.7969 29863.4346 -187.0638 -123.8875
ENERGY: 1500000 2.2937 14.4162 3.1642 0.0000 -10237.1421 1295.3212 0.0000 0.0000 1801.0708 -7120.8761 312.1006 -8921.9469 -7262.0088 300.4958 -887.3622 -799.4007 30060.2614 -153.4259 -90.1196
TCL: Running FEP window  19: Lambda1 0.09999999999999969 Lambda2 0.049999999999999684 [dLambda -0.05 ]
TCL: Setting parameter firsttimestep to 0
TCL: Setting parameter alchLambda to 0.09999999999999969
Info: NONBONDED TABLE R-SQUARED SPACING: 0.0625
Info: NONBONDED TABLE SIZE: 705 POINTS
TCL: Setting parameter alchLambda2 to 0.049999999999999684
Info: NONBONDED TABLE R-SQUARED SPACING: 0.0625
Info: NONBONDED TABLE SIZE: 705 POINTS
TCL: Running for 1500000 steps
ETITLE: TS BOND ANGLE DIHED IMPRP ELECT VDW BOUNDARY MISC KINETIC TOTAL TEMP POTENTIAL TOTALAVG TEMPAVG PRESSURE GPRESSURE VOLUME PRESSAVG GPRESSAVG
ENERGY: 0 2.2937 14.4162 3.1642 0.0000 -10237.1419 1295.4047 0.0000 0.0000 1800.1871 -7121.6761 311.9474 -8921.8631 -7121.6761 311.9474 -881.8628 -802.2846 30060.2614 -881.8628 -802.2846
ENERGY: 300000 3.3461 8.4392 4.3317 0.0000 -10424.3787 1395.4272 0.0000 0.0000 1718.1922 -7294.6422 297.7389 -9012.8345 -7274.2336 299.5565 -87.1744 19.3408 29607.4991 -331.0675 -230.9969
ENERGY: 600000 3.1105 18.9711 3.2179 0.0000 -10721.0697 1555.9156 0.0000 0.0000 1740.6960 -7399.1586 301.6384 -9139.8546 -7289.3342 301.0111 905.9680 938.9190 29365.2094 -102.3238 -11.1077
ENERGY: 900000 2.8591 16.3309 4.8752 0.0000 -10474.5124 1388.8468 0.0000 0.0000 1683.9708 -7377.6296 291.8088 -9061.6004 -7299.1777 300.6054 -372.6939 -269.2503 29587.8505 2.3955 84.5264
ENERGY: 1200000 1.2531 13.3578 2.8978 0.0000 -10504.6369 1452.1128 0.0000 0.0000 1687.7682 -7347.2473 292.4668 -9035.0154 -7309.9833 299.4426 322.8528 399.5830 29636.5505 33.9671 108.8682
ENERGY: 1500000 1.4785 13.6298 4.3573 0.0000 -10602.1941 1500.8311 0.0000 0.0000 1762.2674 -7319.6300 305.3765 -9081.8974 -7310.3750 299.9571 759.6175 845.0318 29086.4127 90.1415 170.2008
TCL: Running FEP window  20: Lambda1 0.049999999999999684 Lambda2 0.0    [dLambda -0.049999999999999684]
TCL: Setting parameter firsttimestep to 0
TCL: Setting parameter alchLambda to 0.049999999999999684
Info: NONBONDED TABLE R-SQUARED SPACING: 0.0625
Info: NONBONDED TABLE SIZE: 705 POINTS
TCL: Setting parameter alchLambda2 to 0.0
Info: NONBONDED TABLE R-SQUARED SPACING: 0.0625
Info: NONBONDED TABLE SIZE: 705 POINTS
TCL: Running for 1500000 steps
ETITLE: TS BOND ANGLE DIHED IMPRP ELECT VDW BOUNDARY MISC KINETIC TOTAL TEMP POTENTIAL TOTALAVG TEMPAVG PRESSURE GPRESSURE VOLUME PRESSAVG GPRESSAVG
ENERGY: 0 1.4785 13.6298 4.3573 0.0000 -10602.1940 1500.2836 0.0000 0.0000 1761.3935 -7321.0514 305.2250 -9082.4449 -7321.0514 305.2250 757.4573 839.6811 29086.4127 757.4573 839.6811
ENERGY: 300000 2.9818 12.6065 3.4725 0.0000 -10262.6461 1231.6857 0.0000 0.0000 1694.6998 -7317.1997 293.6680 -9011.8995 -7312.5567 298.3338 -1458.2604 -1419.0060 29950.1558 -293.8852 -249.5490
ENERGY: 600000 2.7586 14.8674 5.7202 0.0000 -10464.3965 1414.0062 0.0000 0.0000 1729.7852 -7297.2589 299.7478 -9027.0441 -7298.4214 300.4158 -254.4713 -210.0650 29966.5865 -293.4032 -254.0843
ENERGY: 900000 2.1555 12.5850 4.7090 0.0000 -10401.2676 1347.9890 0.0000 0.0000 1693.8396 -7339.9896 293.5189 -9033.8292 -7301.6075 300.6980 -876.4005 -800.9117 30095.6203 -408.2499 -358.2356
ENERGY: 1200000 4.2676 13.5881 5.9707 0.0000 -10482.2029 1402.9913 0.0000 0.0000 1760.5058 -7294.8795 305.0712 -9055.3852 -7306.3878 300.5991 -327.2108 -220.4137 29619.1792 -405.8935 -353.2905
ENERGY: 1500000 1.0268 16.3932 3.1678 0.0000 -10440.1140 1357.3082 0.0000 0.0000 1774.1982 -7288.0199 307.4439 -9062.2181 -7311.7280 300.9969 -276.7637 -149.4240 29416.3473 -323.7717 -268.8073
TCL: Exiting due to exit command.
