Info: SIMULATION PARAMETERS:
Info: TIMESTEP               2
Info: NUMBER OF STEPS        0
Info: STEPS PER CYCLE        10
Info: PERIODIC CELL BASIS 1  34.8869 0 0
Info: PERIODIC CELL BASIS 2  0 28.9904 0
Info: PERIODIC CELL BASIS 3  0 0 30.1963
Info: PERIODIC CELL CENTER   0 0 0
Info: WRAPPING WATERS AROUND PERIODIC BOUNDARIES ON OUTPUT.
Info: WRAPPING ALL CLUSTERS AROUND PERIODIC BOUNDARIES ON OUTPUT.
Info: FIRST LDB TIMESTEP     50
Info: LAST LDB TIMESTEP     -1
Info: HOM BACKGROUND SCALING 1
Info: PME BACKGROUND SCALING 1
Info: MIN ATOMS PER PATCH    40
Info: EMPTY PATCH LOAD       40 ATOMS
Info: VELOCITY FILE          mobley_2517158_equil.vel
Info: CENTER OF MASS MOVING INITIALLY? NO
Info: DIELECTRIC             1
Info: EXCLUDE                SCALED ONE-FOUR
Info: 1-4 ELECTROSTATICS SCALED BY 0.833333
Info: MODIFIED 1-4 VDW PARAMETERS WILL BE USED
Info: DCD FILENAME           mobley_2517158_prod.dcd
Info: DCD FREQUENCY          100000
Info: DCD FIRST STEP         100000
Info: DCD FILE WILL CONTAIN UNIT CELL DATA
Info: XST FILENAME           mobley_2517158_prod.xst
Info: XST FREQUENCY          100000
Info: NO VELOCITY DCD OUTPUT
Info: NO FORCE DCD OUTPUT
Info: OUTPUT FILENAME        mobley_2517158_prod
Info: BINARY OUTPUT FILES WILL BE USED
Info: RESTART FILENAME       mobley_2517158_prod.restart
Info: RESTART FREQUENCY      100000
Info: BINARY RESTART FILES WILL BE USED
Info: CUTOFF                 9
Info: PAIRLIST DISTANCE      11
Info: PAIRLIST SHRINK RATE   0.01
Info: PAIRLIST GROW RATE     0.01
Info: PAIRLIST TRIGGER       0.3
Info: PAIRLISTS PER CYCLE    2
Info: PAIRLISTS ENABLED
Info: MARGIN                 2
Info: HYDROGEN GROUP CUTOFF  2.5
Info: PATCH DIMENSION        15.5
Info: ENERGY OUTPUT STEPS    100000
Info: ENERGY EVALUATION STEPS    100000
Info: OUTPUT ENERGY PRECISION 4
Info: CROSSTERM ENERGY INCLUDED IN DIHEDRAL
Info: TIMING OUTPUT STEPS    1000000
Info: PRESSURE OUTPUT STEPS  100000
Info: ALCHEMICAL FEP ON
Info: FEP CURRENT LAMBDA VALUE     1
Info: FEP COMPARISON LAMBDA VALUE  0.95
Info: FEP INTRA-ALCHEMICAL NON-BONDED INTERACTIONS WILL BE RETAINED
Info: FEP INTRA-ALCHEMICAL BONDED INTERACTIONS WILL BE RETAINED
Info: FEP VDW SHIFTING COEFFICIENT 5
Info: FEP ELEC. ACTIVE FOR ANNIHILATED PARTICLES BETWEEN LAMBDA = 0 AND LAMBDA = 0.5
Info: FEP ELEC. ACTIVE FOR EXNIHILATED PARTICLES BETWEEN LAMBDA = 0.5 AND LAMBDA = 1
Info: FEP VDW ACTIVE FOR ANNIHILATED PARTICLES BETWEEN LAMBDA = 0 AND LAMBDA = 1
Info: FEP VDW ACTIVE FOR EXNIHILATED PARTICLES BETWEEN LAMBDA = 0 AND LAMBDA = 1
Info: FEP BOND ACTIVE FOR ANNIHILATED PARTICLES BETWEEN LAMBDA = 1 AND LAMBDA = 1
Info: FEP BOND ACTIVE FOR EXNIHILATED PARTICLES BETWEEN LAMBDA = 0 AND LAMBDA = 0
Info: LANGEVIN DYNAMICS ACTIVE
Info: LANGEVIN TEMPERATURE   300
Info: LANGEVIN USING BBK INTEGRATOR
Info: LANGEVIN DAMPING COEFFICIENT IS 1 INVERSE PS
Info: LANGEVIN DYNAMICS APPLIED TO HYDROGENS
Info: LANGEVIN PISTON PRESSURE CONTROL ACTIVE
Info:        TARGET PRESSURE IS 1.01325 BAR
Info:     OSCILLATION PERIOD IS 50 FS
Info:             DECAY TIME IS 25 FS
Info:     PISTON TEMPERATURE IS 300 K
Info:       PRESSURE CONTROL IS GROUP-BASED
Info:    INITIAL STRAIN RATE IS -6.18207e-05 -6.18207e-05 -6.18207e-05
Info:       CELL FLUCTUATION IS ISOTROPIC
Info: PARTICLE MESH EWALD (PME) ACTIVE
Info: PME TOLERANCE               1e-06
Info: PME EWALD COEFFICIENT       0.348832
Info: PME INTERPOLATION ORDER     4
Info: PME GRID DIMENSIONS         36 32 32
Info: PME MAXIMUM GRID SPACING    1
Info: PME CALCULATION WILL BE PERFORMED ON GPU
Info: FULL ELECTROSTATIC EVALUATION FREQUENCY      2
Info: USING VERLET I (r-RESPA) MTS SCHEME.
Info: C1 SPLITTING OF LONG RANGE ELECTROSTATICS
Info: PLACING ATOMS IN PATCHES BY HYDROGEN GROUPS
Info: RIGID BONDS TO HYDROGEN : ALL
Info:         ERROR TOLERANCE : 1e-08
Info:          MAX ITERATIONS : 100
Info: RIGID WATER USING SETTLE ALGORITHM
Info: RANDOM NUMBER SEED     1744011243
Info: USE HYDROGEN BONDS?    NO
Info: Using AMBER format force field!
Info: AMBER PARM FILE        mobley_2517158.prmtop
Info: COORDINATE PDB         mobley_2517158.pdb
Info: Exclusions will be read from PARM file!
Info: SCNB (VDW SCALING)     2
Info: USING ARITHMETIC MEAN TO COMBINE L-J SIGMA PARAMETERS
Info: BINARY COORDINATES     mobley_2517158_equil.coor
Info: SUMMARY OF PARAMETERS:
Info: 6 BONDS
Info: 7 ANGLES
Info:   7 HARMONIC
Info:   0 COSINE-BASED
Info: 8 DIHEDRAL
Info: 0 IMPROPER
Info: 0 CROSSTERM
Info: 0 VDW
Info: 21 VDW_PAIRS
Info: 0 NBTHOLE_PAIRS
Info: To read alchdata from file: mobley_2517158.pdb
Info: To read alchflag data from column: 5
Info: STRUCTURE SUMMARY:
Info: 2963 ATOMS
Info: 2962 BONDS
Info: 42 ANGLES
Info: 64 DIHEDRALS
Info: 0 IMPROPERS
Info: 0 CROSSTERMS
Info: 3058 EXCLUSIONS
Info: 2955 RIGID BONDS
Info: ALCH: 0 ATOMS TO DISAPPEAR IN FINAL STATE
Info: ALCH: 23 ATOMS TO APPEAR IN FINAL STATE
Info: 5934 DEGREES OF FREEDOM
Info: 988 HYDROGEN GROUPS
Info: 4 ATOMS IN LARGEST HYDROGEN GROUP
Info: 988 MIGRATION GROUPS
Info: 4 ATOMS IN LARGEST MIGRATION GROUP
Info: TOTAL MASS = 17834.8 amu
Info: TOTAL CHARGE = 0.000199994 e
Info: MASS DENSITY = 0.969741 g/cm^3
Info: ATOM DENSITY = 0.0970199 atoms/A^3
Info: ADDED 0 IMPLICIT EXCLUSIONS
Info: NONBONDED TABLE R-SQUARED SPACING: 0.0625
Info: NONBONDED TABLE SIZE: 705 POINTS
Info: REMOVING COM VELOCITY 0.0706964 -0.342856 -0.206783
Info: Use 3D box decompostion in PME FFT.
Info: Updated CUDA force table with 4096 elements.
Info: Updated CUDA LJ table with 6 x 6 elements.
Info: Found 26 unique exclusion lists needing 84 bytes
TCL: Running for 1500000 steps
ETITLE: TS BOND ANGLE DIHED IMPRP ELECT VDW BOUNDARY MISC KINETIC TOTAL TEMP POTENTIAL TOTALAVG TEMPAVG PRESSURE GPRESSURE VOLUME PRESSAVG GPRESSAVG
ENERGY: 0 2.5836 10.1529 4.9530 0.0000 -10729.9712 1441.0139 0.0000 0.0000 1751.6414 -7519.6263 297.0900 -9271.2677 -7519.6263 297.0900 -189.9675 -106.5743 30540.1253 -189.9675 -106.5743
ENERGY: 300000 3.0491 6.5911 6.7860 0.0000 -10642.2252 1361.3760 0.0000 0.0000 1840.1562 -7424.2668 312.1027 -9264.4230 -7492.1945 303.5627 -390.4622 -324.1400 30360.8526 100.8059 154.5942
ENERGY: 600000 1.9086 6.2290 4.2078 0.0000 -10650.1462 1443.1574 0.0000 0.0000 1780.1675 -7414.4759 301.9282 -9194.6434 -7491.8110 301.3356 178.7905 245.9549 31050.1615 214.5405 265.7501
ENERGY: 900000 1.6387 9.2519 6.6657 0.0000 -10644.3939 1405.9521 0.0000 0.0000 1752.9837 -7467.9018 297.3177 -9220.8855 -7489.9396 300.7149 -224.1496 -126.4115 30483.7519 -15.5937 48.9463
ENERGY: 1200000 2.2483 13.1720 6.7454 0.0000 -10689.7290 1406.7839 0.0000 0.0000 1739.7630 -7521.0164 295.0754 -9260.7794 -7492.2098 300.0233 -242.6553 -174.6401 30272.0104 31.0906 93.3244
ENERGY: 1500000 1.7286 15.7621 4.5554 0.0000 -10688.9328 1427.3001 0.0000 0.0000 1744.0462 -7495.5404 295.8018 -9239.5866 -7495.7657 300.1063 63.8400 101.5327 30455.5320 -16.3420 45.0285
TCL: Running FEP window   2: Lambda1 0.95   Lambda2 0.8999999999999999 [dLambda -0.050000000000000044]
TCL: Setting parameter firsttimestep to 0
TCL: Setting parameter alchLambda to 0.95
Info: NONBONDED TABLE R-SQUARED SPACING: 0.0625
Info: NONBONDED TABLE SIZE: 705 POINTS
TCL: Setting parameter alchLambda2 to 0.8999999999999999
Info: NONBONDED TABLE R-SQUARED SPACING: 0.0625
Info: NONBONDED TABLE SIZE: 705 POINTS
TCL: Running for 1500000 steps
ETITLE: TS BOND ANGLE DIHED IMPRP ELECT VDW BOUNDARY MISC KINETIC TOTAL TEMP POTENTIAL TOTALAVG TEMPAVG PRESSURE GPRESSURE VOLUME PRESSAVG GPRESSAVG
ENERGY: 0 1.7286 15.7621 4.5554 0.0000 -10688.7593 1428.2667 0.0000 0.0000 1743.1824 -7495.2640 295.6553 -9238.4465 -7495.2640 295.6553 8.1187 102.1130 30455.5320 8.1187 102.1130
ENERGY: 300000 2.8740 11.6977 4.1618 0.0000 -10661.3810 1416.6342 0.0000 0.0000 1776.2702 -7449.7430 301.2672 -9226.0132 -7495.6596 299.6330 -99.6608 -53.8329 30689.6562 -0.4244 61.0347
ENERGY: 600000 1.5315 11.2410 5.7837 0.0000 -10558.1799 1379.6894 0.0000 0.0000 1745.3108 -7414.6235 296.0163 -9159.9343 -7477.2779 300.2338 -107.3859 -36.7405 30535.1556 -103.0339 -24.1612
ENERGY: 900000 1.6776 9.2177 5.4356 0.0000 -10648.5445 1407.7972 0.0000 0.0000 1733.8607 -7490.5557 294.0743 -9224.4164 -7462.1459 300.6435 -433.7590 -410.1895 30993.5074 8.1745 81.7028
ENERGY: 1200000 0.6370 22.1401 4.7393 0.0000 -10718.0505 1401.9079 0.0000 0.0000 1750.1814 -7538.4449 296.8424 -9288.6262 -7464.6091 300.1638 -301.1716 -321.7488 30469.7196 -98.5267 -28.2615
ENERGY: 1500000 2.3450 9.2687 4.7565 0.0000 -10626.3197 1356.6759 0.0000 0.0000 1771.0689 -7482.2047 300.3850 -9253.2737 -7466.5478 300.9252 -375.3351 -304.7430 30212.1295 -85.8526 -14.5923
TCL: Running FEP window   3: Lambda1 0.8999999999999999 Lambda2 0.8499999999999999 [dLambda -0.050000000000000044]
TCL: Setting parameter firsttimestep to 0
TCL: Setting parameter alchLambda to 0.8999999999999999
Info: NONBONDED TABLE R-SQUARED SPACING: 0.0625
Info: NONBONDED TABLE SIZE: 705 POINTS
TCL: Setting parameter alchLambda2 to 0.8499999999999999
Info: NONBONDED TABLE R-SQUARED SPACING: 0.0625
Info: NONBONDED TABLE SIZE: 705 POINTS
TCL: Running for 1500000 steps
ETITLE: TS BOND ANGLE DIHED IMPRP ELECT VDW BOUNDARY MISC KINETIC TOTAL TEMP POTENTIAL TOTALAVG TEMPAVG PRESSURE GPRESSURE VOLUME PRESSAVG GPRESSAVG
ENERGY: 0 2.3450 9.2687 4.7565 0.0000 -10625.9162 1356.7850 0.0000 0.0000 1770.2019 -7482.5591 300.2380 -9252.7610 -7482.5591 300.2380 -408.9413 -319.2186 30212.1295 -408.9413 -319.2186
ENERGY: 300000 1.7929 10.3893 5.8937 0.0000 -10616.3653 1401.3322 0.0000 0.0000 1783.7075 -7413.2497 302.5286 -9196.9573 -7469.8095 297.1371 -165.7695 -45.5214 30732.8269 -315.2172 -220.9436
ENERGY: 600000 2.9605 15.2151 5.9851 0.0000 -10654.5847 1371.7299 0.0000 0.0000 1701.5545 -7557.1396 288.5949 -9258.6941 -7479.9415 300.0872 -394.9193 -321.6871 30513.5507 -116.0189 -41.4300
ENERGY: 900000 2.4680 11.5681 3.5409 0.0000 -10639.3734 1375.0669 0.0000 0.0000 1789.7677 -7456.9617 303.5565 -9246.7295 -7481.1317 299.6887 -695.5253 -574.4403 30777.8384 -176.2276 -97.8340
ENERGY: 1200000 2.4408 9.5347 8.8302 0.0000 -10597.0114 1324.8280 0.0000 0.0000 1723.5063 -7527.8714 292.3181 -9251.3777 -7496.2099 298.7123 -1031.4025 -998.5475 30834.8104 -278.0200 -207.9920
ENERGY: 1500000 2.2416 9.2480 8.7202 0.0000 -10665.6794 1405.0805 0.0000 0.0000 1755.6187 -7484.7705 297.7646 -9240.3891 -7487.6082 299.3369 -110.8056 -73.4616 30261.4876 -302.5927 -239.4586
TCL: Running FEP window   4: Lambda1 0.8499999999999999 Lambda2 0.7999999999999998 [dLambda -0.050000000000000044]
TCL: Setting parameter firsttimestep to 0
TCL: Setting parameter alchLambda to 0.8499999999999999
Info: NONBONDED TABLE R-SQUARED SPACING: 0.0625
Info: NONBONDED TABLE SIZE: 705 POINTS
TCL: Setting parameter alchLambda2 to 0.7999999999999998
Info: NONBONDED TABLE R-SQUARED SPACING: 0.0625
Info: NONBONDED TABLE SIZE: 705 POINTS
TCL: Running for 1500000 steps
ETITLE: TS BOND ANGLE DIHED IMPRP ELECT VDW BOUNDARY MISC KINETIC TOTAL TEMP POTENTIAL TOTALAVG TEMPAVG PRESSURE GPRESSURE VOLUME PRESSAVG GPRESSAVG
ENERGY: 0 2.2416 9.2480 8.7202 0.0000 -10665.5424 1405.0810 0.0000 0.0000 1754.7823 -7485.4692 297.6227 -9240.2515 -7485.4692 297.6227 -171.4310 -86.3735 30261.4876 -171.4310 -86.3735
ENERGY: 300000 1.9281 8.2097 5.7030 0.0000 -10708.8013 1436.7186 0.0000 0.0000 1767.7548 -7488.4872 299.8230 -9256.2421 -7465.7261 301.1387 193.2578 259.8227 30031.6841 -111.8847 -34.9210
ENERGY: 600000 3.0071 7.5781 5.7856 0.0000 -10760.4137 1449.4686 0.0000 0.0000 1744.8952 -7549.6792 295.9458 -9294.5743 -7474.0098 299.9908 -34.7708 38.8055 30441.4414 -94.4167 -15.7957
ENERGY: 900000 3.1156 10.0323 6.0629 0.0000 -10839.6645 1524.2063 0.0000 0.0000 1800.4023 -7495.8451 305.3602 -9296.2473 -7481.4008 299.5341 827.8344 905.8388 29968.0629 -26.0737 43.1097
ENERGY: 1200000 2.6176 9.1162 5.4985 0.0000 -10611.5559 1383.4753 0.0000 0.0000 1828.6235 -7382.2249 310.1467 -9210.8484 -7474.9274 299.9332 -11.9439 44.4228 30216.2188 -31.7732 31.4772
ENERGY: 1500000 1.4616 8.4019 4.7637 0.0000 -10723.4539 1458.9357 0.0000 0.0000 1805.1329 -7444.7581 306.1625 -9249.8910 -7466.9465 301.0534 65.0245 126.4784 30547.9995 7.8345 73.2709
TCL: Running FEP window   5: Lambda1 0.7999999999999998 Lambda2 0.7499999999999998 [dLambda -0.050000000000000044]
TCL: Setting parameter firsttimestep to 0
TCL: Setting parameter alchLambda to 0.7999999999999998
Info: NONBONDED TABLE R-SQUARED SPACING: 0.0625
Info: NONBONDED TABLE SIZE: 705 POINTS
TCL: Setting parameter alchLambda2 to 0.7499999999999998
Info: NONBONDED TABLE R-SQUARED SPACING: 0.0625
Info: NONBONDED TABLE SIZE: 705 POINTS
TCL: Running for 1500000 steps
ETITLE: TS BOND ANGLE DIHED IMPRP ELECT VDW BOUNDARY MISC KINETIC TOTAL TEMP POTENTIAL TOTALAVG TEMPAVG PRESSURE GPRESSURE VOLUME PRESSAVG GPRESSAVG
ENERGY: 0 1.4616 8.4019 4.7637 0.0000 -10723.3023 1459.4466 0.0000 0.0000 1804.2298 -7444.9987 306.0094 -9249.2285 -7444.9987 306.0094 27.9464 120.3642 30547.9995 27.9464 120.3642
ENERGY: 300000 3.1804 11.3681 4.8048 0.0000 -10620.4657 1362.3973 0.0000 0.0000 1726.0013 -7512.7138 292.7413 -9238.7151 -7498.5180 299.3992 -375.3885 -311.2861 29882.6727 -228.6570 -146.5458
ENERGY: 600000 0.2861 11.9930 5.6765 0.0000 -10647.2405 1348.3682 0.0000 0.0000 1780.4161 -7500.5006 301.9704 -9280.9167 -7464.5879 302.3924 -911.3027 -791.4794 30832.8426 -331.5633 -246.1458
ENERGY: 900000 1.2395 13.5644 5.7976 0.0000 -10783.8508 1429.7513 0.0000 0.0000 1728.3658 -7605.1321 293.1423 -9333.4979 -7465.5663 302.2370 -326.2359 -324.8279 30684.1942 -263.9046 -197.2941
ENERGY: 1200000 2.2753 15.5389 4.1737 0.0000 -10668.2735 1461.7756 0.0000 0.0000 1736.9345 -7447.5755 294.5956 -9184.5099 -7470.1732 300.8044 157.2159 169.6138 30833.8254 -160.5829 -95.6452
ENERGY: 1500000 1.3996 12.1613 5.8022 0.0000 -10643.8587 1426.1304 0.0000 0.0000 1798.3845 -7399.9808 305.0179 -9198.3653 -7465.8921 301.1148 135.1393 194.8683 30376.4169 -188.3969 -125.0767
TCL: Running FEP window   6: Lambda1 0.7499999999999998 Lambda2 0.6999999999999997 [dLambda -0.050000000000000044]
TCL: Setting parameter firsttimestep to 0
TCL: Setting parameter alchLambda to 0.7499999999999998
Info: NONBONDED TABLE R-SQUARED SPACING: 0.0625
Info: NONBONDED TABLE SIZE: 705 POINTS
TCL: Setting parameter alchLambda2 to 0.6999999999999997
Info: NONBONDED TABLE R-SQUARED SPACING: 0.0625
Info: NONBONDED TABLE SIZE: 705 POINTS
TCL: Running for 1500000 steps
ETITLE: TS BOND ANGLE DIHED IMPRP ELECT VDW BOUNDARY MISC KINETIC TOTAL TEMP POTENTIAL TOTALAVG TEMPAVG PRESSURE GPRESSURE VOLUME PRESSAVG GPRESSAVG
ENERGY: 0 1.3996 12.1613 5.8022 0.0000 -10643.6043 1426.1039 0.0000 0.0000 1797.5085 -7400.6288 304.8694 -9198.1374 -7400.6288 304.8694 97.6711 182.1126 30376.4169 97.6711 182.1126
ENERGY: 300000 2.1235 10.6642 4.5533 0.0000 -10738.4120 1448.1892 0.0000 0.0000 1828.5330 -7444.3487 310.1313 -9272.8818 -7466.5311 302.4172 97.4795 142.2697 30278.7032 353.4864 431.5202
ENERGY: 600000 0.8220 12.0106 3.4683 0.0000 -10690.3935 1379.5824 0.0000 0.0000 1789.5879 -7504.9224 303.5260 -9294.5103 -7491.3007 300.9155 -595.0965 -488.2202 30622.0779 63.2328 133.8452
ENERGY: 900000 2.1106 8.5541 4.4712 0.0000 -10805.7342 1546.6519 0.0000 0.0000 1732.0610 -7511.8853 293.7690 -9243.9463 -7488.6078 299.7917 592.9956 686.9521 30543.2641 74.1900 147.1456
ENERGY: 1200000 1.4519 8.5447 3.5450 0.0000 -10710.6842 1424.5535 0.0000 0.0000 1757.0614 -7515.5276 298.0093 -9272.5890 -7494.5065 299.2731 -140.3227 -35.8539 30356.7660 24.1765 100.0815
ENERGY: 1500000 1.5442 17.3341 5.2407 0.0000 -10638.3810 1423.6486 0.0000 0.0000 1806.5463 -7384.0672 306.4022 -9190.6134 -7484.4185 299.7868 411.7882 475.9413 30026.3590 -8.8251 62.8580
TCL: Running FEP window   7: Lambda1 0.6999999999999997 Lambda2 0.6499999999999997 [dLambda -0.050000000000000044]
TCL: Setting parameter firsttimestep to 0
TCL: Setting parameter alchLambda to 0.6999999999999997
Info: NONBONDED TABLE R-SQUARED SPACING: 0.0625
Info: NONBONDED TABLE SIZE: 705 POINTS
TCL: Setting parameter alchLambda2 to 0.6499999999999997
Info: NONBONDED TABLE R-SQUARED SPACING: 0.0625
Info: NONBONDED TABLE SIZE: 705 POINTS
TCL: Running for 1500000 steps
ETITLE: TS BOND ANGLE DIHED IMPRP ELECT VDW BOUNDARY MISC KINETIC TOTAL TEMP POTENTIAL TOTALAVG TEMPAVG PRESSURE GPRESSURE VOLUME PRESSAVG GPRESSAVG
ENERGY: 0 1.5442 17.3341 5.2407 0.0000 -10638.4600 1424.2116 0.0000 0.0000 1805.6766 -7384.4528 306.2547 -9190.1294 -7384.4528 306.2547 388.3586 467.5717 30026.3590 388.3586 467.5717
ENERGY: 300000 1.2652 11.9044 5.3457 0.0000 -10712.7271 1443.4285 0.0000 0.0000 1710.7741 -7540.0092 290.1586 -9250.7833 -7449.1900 300.5800 131.1173 129.0536 30182.6537 141.4884 190.6405
ENERGY: 600000 3.1435 12.0481 3.9366 0.0000 -10661.8594 1439.0110 0.0000 0.0000 1771.8148 -7431.9053 300.5115 -9203.7201 -7445.2875 300.2450 -240.3394 -152.6663 30949.0040 69.5304 123.8200
ENERGY: 900000 0.6614 8.3885 5.6092 0.0000 -10786.9756 1536.3724 0.0000 0.0000 1743.5918 -7492.3523 295.7247 -9235.9441 -7465.6724 299.7814 626.2615 693.4653 30704.8137 75.1811 128.1288
ENERGY: 1200000 2.3573 11.2952 5.0679 0.0000 -10608.8048 1357.1837 0.0000 0.0000 1734.6651 -7498.2356 294.2107 -9232.9007 -7464.0760 299.8435 -632.6295 -503.4410 30262.8569 -10.5743 46.0949
ENERGY: 1500000 2.1494 9.3247 3.1559 0.0000 -10713.7563 1401.5217 0.0000 0.0000 1756.8961 -7540.7084 297.9812 -9297.6045 -7472.1578 299.4718 -334.1946 -280.7671 30499.7026 62.3674 119.4527
TCL: Running FEP window   8: Lambda1 0.6499999999999997 Lambda2 0.5999999999999996 [dLambda -0.050000000000000044]
TCL: Setting parameter firsttimestep to 0
TCL: Setting parameter alchLambda to 0.6499999999999997
Info: NONBONDED TABLE R-SQUARED SPACING: 0.0625
Info: NONBONDED TABLE SIZE: 705 POINTS
TCL: Setting parameter alchLambda2 to 0.5999999999999996
Info: NONBONDED TABLE R-SQUARED SPACING: 0.0625
Info: NONBONDED TABLE SIZE: 705 POINTS
TCL: Running for 1500000 steps
ETITLE: TS BOND ANGLE DIHED IMPRP ELECT VDW BOUNDARY MISC KINETIC TOTAL TEMP POTENTIAL TOTALAVG TEMPAVG PRESSURE GPRESSURE VOLUME PRESSAVG GPRESSAVG
ENERGY: 0 2.1494 9.3247 3.1559 0.0000 -10713.5705 1402.0479 0.0000 0.0000 1756.0423 -7540.8502 297.8364 -9296.8925 -7540.8502 297.8364 -361.8640 -287.6447 30499.7026 -361.8640 -287.6447
ENERGY: 300000 2.7974 12.0916 3.9166 0.0000 -10774.3415 1503.0935 0.0000 0.0000 1805.1600 -7447.2824 306.1671 -9252.4424 -7511.2215 300.1324 595.6187 636.4434 30093.2239 21.2309 84.5310
ENERGY: 600000 3.3170 10.5673 8.3604 0.0000 -10824.0739 1517.8461 0.0000 0.0000 1725.1610 -7558.8221 292.5988 -9283.9831 -7511.7116 298.4804 289.6469 345.5857 30479.1781 22.7621 83.6796
ENERGY: 900000 1.5860 15.3624 4.7985 0.0000 -10639.9878 1426.4292 0.0000 0.0000 1812.1074 -7379.7043 307.3454 -9191.8117 -7500.7402 300.5933 -28.9845 9.5372 30783.7712 45.1015 113.2789
ENERGY: 1200000 1.7923 10.0152 3.4405 0.0000 -10566.0220 1385.8319 0.0000 0.0000 1767.5676 -7397.3746 299.7912 -9164.9422 -7484.9910 299.7696 -411.4276 -371.0075 30833.2503 -94.9331 -29.2100
ENERGY: 1500000 3.0901 8.9706 3.5793 0.0000 -10627.7212 1403.8541 0.0000 0.0000 1809.2237 -7399.0035 306.8564 -9208.2273 -7476.7308 299.8391 -152.7450 -51.8621 30249.9598 -94.3336 -27.3863
TCL: Running FEP window   9: Lambda1 0.5999999999999996 Lambda2 0.5499999999999996 [dLambda -0.050000000000000044]
TCL: Setting parameter firsttimestep to 0
TCL: Setting parameter alchLambda to 0.5999999999999996
Info: NONBONDED TABLE R-SQUARED SPACING: 0.0625
Info: NONBONDED TABLE SIZE: 705 POINTS
TCL: Setting parameter alchLambda2 to 0.5499999999999996
Info: NONBONDED TABLE R-SQUARED SPACING: 0.0625
Info: NONBONDED TABLE SIZE: 705 POINTS
TCL: Running for 1500000 steps
ETITLE: TS BOND ANGLE DIHED IMPRP ELECT VDW BOUNDARY MISC KINETIC TOTAL TEMP POTENTIAL TOTALAVG TEMPAVG PRESSURE GPRESSURE VOLUME PRESSAVG GPRESSAVG
ENERGY: 0 3.0901 8.9706 3.5793 0.0000 -10627.5637 1403.8283 0.0000 0.0000 1808.3589 -7399.7366 306.7097 -9208.0955 -7399.7366 306.7097 -159.5995 -63.0829 30249.9598 -159.5995 -63.0829
ENERGY: 300000 1.6745 9.4599 4.2999 0.0000 -10683.7036 1499.6302 0.0000 0.0000 1775.8903 -7392.7489 301.2028 -9168.6392 -7409.3624 303.4549 831.3841 885.6525 30314.5562 36.1256 114.7076
ENERGY: 600000 2.5969 12.5940 8.2588 0.0000 -10498.7870 1299.7740 0.0000 0.0000 1798.7050 -7376.8585 305.0723 -9175.5635 -7427.6734 303.2285 -1111.6506 -1098.6753 30801.9930 -298.3830 -226.7341
ENERGY: 900000 5.6599 13.0704 4.6218 0.0000 -10714.5395 1423.9364 0.0000 0.0000 1865.5225 -7401.7285 316.4050 -9267.2510 -7439.0253 304.6895 -71.8057 -37.1073 30286.3759 -339.8050 -275.8163
ENERGY: 1200000 4.3702 13.8618 4.3798 0.0000 -10733.4883 1396.7727 0.0000 0.0000 1749.8932 -7564.2108 296.7935 -9314.1040 -7444.6867 304.3543 -442.5124 -301.3553 30189.5984 -308.5665 -241.0067
ENERGY: 1500000 2.5827 15.5839 5.9730 0.0000 -10716.1379 1476.6794 0.0000 0.0000 1729.0005 -7486.3184 293.2500 -9215.3189 -7450.0643 302.8035 701.6217 762.6599 29931.0174 -152.1203 -91.2375
TCL: Running FEP window  10: Lambda1 0.5499999999999996 Lambda2 0.4999999999999996 [dLambda -0.04999999999999999]
TCL: Setting parameter firsttimestep to 0
TCL: Setting parameter alchLambda to 0.5499999999999996
Info: NONBONDED TABLE R-SQUARED SPACING: 0.0625
Info: NONBONDED TABLE SIZE: 705 POINTS
TCL: Setting parameter alchLambda2 to 0.4999999999999996
Info: NONBONDED TABLE R-SQUARED SPACING: 0.0625
Info: NONBONDED TABLE SIZE: 705 POINTS
TCL: Running for 1500000 steps
ETITLE: TS BOND ANGLE DIHED IMPRP ELECT VDW BOUNDARY MISC KINETIC TOTAL TEMP POTENTIAL TOTALAVG TEMPAVG PRESSURE GPRESSURE VOLUME PRESSAVG GPRESSAVG
ENERGY: 0 2.5827 15.5839 5.9730 0.0000 -10716.2098 1477.2209 0.0000 0.0000 1728.1144 -7486.7349 293.0997 -9214.8493 -7486.7349 293.0997 670.9231 757.9857 29931.0174 670.9231 757.9857
ENERGY: 300000 0.6590 11.8452 4.9095 0.0000 -10662.8736 1439.6114 0.0000 0.0000 1755.4051 -7450.4434 297.7284 -9205.8484 -7465.9714 298.8069 -45.7283 40.7498 30853.1713 138.4435 224.0891
ENERGY: 600000 4.1602 17.1456 4.4711 0.0000 -10566.0711 1378.5168 0.0000 0.0000 1815.1392 -7346.6382 307.8596 -9161.7774 -7460.3571 299.4659 -455.6060 -424.1906 30789.8823 -23.4260 41.7831
ENERGY: 900000 1.5965 14.0922 8.3465 0.0000 -10830.0438 1497.8204 0.0000 0.0000 1701.1115 -7607.0767 288.5198 -9308.1882 -7484.5211 299.0874 242.9426 235.4214 30560.4482 88.8042 146.4564
ENERGY: 1200000 1.5619 12.9587 5.3516 0.0000 -10756.9578 1441.6433 0.0000 0.0000 1765.2036 -7530.2388 299.3902 -9295.4424 -7480.2252 298.9707 -94.6431 -49.2176 30361.2289 91.0079 146.4293
ENERGY: 1500000 1.6201 13.2492 6.3291 0.0000 -10817.2224 1526.9636 0.0000 0.0000 1783.1944 -7485.8661 302.4416 -9269.0605 -7477.2303 300.0136 420.1303 443.4486 30591.2124 80.5213 137.7410
TCL: Running FEP window  11: Lambda1 0.4999999999999996 Lambda2 0.4499999999999996 [dLambda -0.04999999999999999]
TCL: Setting parameter firsttimestep to 0
TCL: Setting parameter alchLambda to 0.4999999999999996
Info: NONBONDED TABLE R-SQUARED SPACING: 0.0625
Info: NONBONDED TABLE SIZE: 705 POINTS
TCL: Setting parameter alchLambda2 to 0.4499999999999996
Info: NONBONDED TABLE R-SQUARED SPACING: 0.0625
Info: NONBONDED TABLE SIZE: 705 POINTS
TCL: Running for 1500000 steps
ETITLE: TS BOND ANGLE DIHED IMPRP ELECT VDW BOUNDARY MISC KINETIC TOTAL TEMP POTENTIAL TOTALAVG TEMPAVG PRESSURE GPRESSURE VOLUME PRESSAVG GPRESSAVG
ENERGY: 0 1.6201 13.2492 6.3291 0.0000 -10817.0627 1527.1585 0.0000 0.0000 1782.3545 -7486.3513 302.2992 -9268.7058 -7486.3513 302.2992 377.1347 438.2962 30591.2124 377.1347 438.2962
ENERGY: 300000 1.7888 6.5739 4.7611 0.0000 -10640.5514 1405.3024 0.0000 0.0000 1805.1458 -7416.9794 306.1647 -9222.1252 -7459.0545 300.3219 -402.7789 -319.1240 30947.9867 19.5379 102.1156
ENERGY: 600000 0.8047 6.1687 5.9700 0.0000 -10654.4390 1434.6873 0.0000 0.0000 1791.5265 -7415.2817 303.8548 -9206.8082 -7459.5640 302.1438 -94.0667 -51.3931 30615.9965 -37.0191 32.3799
ENERGY: 900000 1.0643 13.0850 4.8285 0.0000 -10801.2235 1540.6727 0.0000 0.0000 1808.0472 -7433.5258 306.6568 -9241.5730 -7469.5181 300.4726 841.8862 887.5946 30387.2704 106.9200 167.5690
ENERGY: 1200000 3.7579 9.5717 4.8479 0.0000 -10757.2227 1445.0108 0.0000 0.0000 1791.9572 -7502.0773 303.9278 -9294.0345 -7479.2506 300.4626 -182.8385 -98.2670 30207.2422 58.2924 119.1629
ENERGY: 1500000 1.1616 11.1319 5.0415 0.0000 -10767.9511 1489.8742 0.0000 0.0000 1780.2950 -7480.4469 301.9499 -9260.7419 -7479.0761 300.4407 247.1968 325.2457 30246.5349 136.9453 193.6513
TCL: Running FEP window  12: Lambda1 0.4499999999999996 Lambda2 0.39999999999999963 [dLambda -0.04999999999999999]
TCL: Setting parameter firsttimestep to 0
TCL: Setting parameter alchLambda to 0.4499999999999996
Info: NONBONDED TABLE R-SQUARED SPACING: 0.0625
Info: NONBONDED TABLE SIZE: 705 POINTS
TCL: Setting parameter alchLambda2 to 0.39999999999999963
Info: NONBONDED TABLE R-SQUARED SPACING: 0.0625
Info: NONBONDED TABLE SIZE: 705 POINTS
TCL: Running for 1500000 steps
ETITLE: TS BOND ANGLE DIHED IMPRP ELECT VDW BOUNDARY MISC KINETIC TOTAL TEMP POTENTIAL TOTALAVG TEMPAVG PRESSURE GPRESSURE VOLUME PRESSAVG GPRESSAVG
ENERGY: 0 1.1616 11.1319 5.0415 0.0000 -10767.9487 1490.4921 0.0000 0.0000 1779.4117 -7480.7097 301.8000 -9260.1215 -7480.7097 301.8000 234.8555 321.1090 30246.5349 234.8555 321.1090
ENERGY: 300000 3.9874 12.6165 6.2986 0.0000 -10728.7922 1426.5390 0.0000 0.0000 1809.6029 -7469.7479 306.9207 -9279.3508 -7517.6502 299.4049 -77.5068 -21.4490 30405.4884 -138.4064 -102.8937
ENERGY: 600000 2.5829 10.5450 3.6002 0.0000 -10835.8515 1524.8828 0.0000 0.0000 1776.4682 -7517.7726 301.3008 -9294.2407 -7502.0283 298.6710 569.2512 597.0212 30145.0907 -41.9643 -6.2064
ENERGY: 900000 3.8526 14.4921 5.8927 0.0000 -10514.7525 1300.1460 0.0000 0.0000 1721.3830 -7468.9862 291.9580 -9190.3692 -7495.1644 297.5839 -1314.5277 -1210.0881 30827.9688 -80.7434 -31.3692
ENERGY: 1200000 0.6949 14.1332 4.4120 0.0000 -10691.6165 1461.9708 0.0000 0.0000 1715.1495 -7495.2563 290.9007 -9210.4057 -7489.7421 297.7984 -7.3291 73.6664 30980.9721 -130.9751 -72.8156
ENERGY: 1500000 1.9980 12.0735 4.0716 0.0000 -10644.3493 1387.0501 0.0000 0.0000 1819.0302 -7420.1260 308.5196 -9239.1562 -7478.8160 298.9291 -131.1392 -113.2139 30285.2834 -106.4369 -53.3310
TCL: Running FEP window  13: Lambda1 0.39999999999999963 Lambda2 0.34999999999999964 [dLambda -0.04999999999999999]
TCL: Setting parameter firsttimestep to 0
TCL: Setting parameter alchLambda to 0.39999999999999963
Info: NONBONDED TABLE R-SQUARED SPACING: 0.0625
Info: NONBONDED TABLE SIZE: 705 POINTS
TCL: Setting parameter alchLambda2 to 0.34999999999999964
Info: NONBONDED TABLE R-SQUARED SPACING: 0.0625
Info: NONBONDED TABLE SIZE: 705 POINTS
TCL: Running for 1500000 steps
ETITLE: TS BOND ANGLE DIHED IMPRP ELECT VDW BOUNDARY MISC KINETIC TOTAL TEMP POTENTIAL TOTALAVG TEMPAVG PRESSURE GPRESSURE VOLUME PRESSAVG GPRESSAVG
ENERGY: 0 1.9980 12.0735 4.0716 0.0000 -10644.3492 1386.6277 0.0000 0.0000 1818.1156 -7421.4628 308.3645 -9239.5784 -7421.4628 308.3645 -204.9976 -124.2686 30285.2834 -204.9976 -124.2686
ENERGY: 300000 2.3332 11.8910 6.5800 0.0000 -10711.4455 1449.4610 0.0000 0.0000 1728.7442 -7512.4361 293.2065 -9241.1804 -7456.0613 301.3547 215.2581 290.9627 30178.9980 -43.9518 17.9269
ENERGY: 600000 0.9465 8.4704 2.9803 0.0000 -10664.3014 1375.0571 0.0000 0.0000 1778.6447 -7498.2024 301.6699 -9276.8471 -7466.2944 300.3793 -507.3874 -410.3336 30420.7669 -151.8618 -85.8260
ENERGY: 900000 2.6926 8.1110 3.0329 0.0000 -10479.1943 1345.0455 0.0000 0.0000 1745.4966 -7374.8157 296.0478 -9120.3123 -7458.9516 299.4216 -352.6461 -268.2772 30341.1316 -264.2790 -192.1743
ENERGY: 1200000 1.3156 11.3381 4.7987 0.0000 -10698.7191 1422.4048 0.0000 0.0000 1760.1085 -7498.7535 298.5261 -9258.8620 -7463.0141 299.8696 35.9820 108.4620 30012.5554 -242.1537 -177.0105
ENERGY: 1500000 2.5015 10.3638 4.7269 0.0000 -10643.5435 1437.5572 0.0000 0.0000 1771.7234 -7416.6707 300.4961 -9188.3941 -7463.7257 299.4391 366.0576 388.2661 30265.5271 -183.0960 -116.5836
TCL: Running FEP window  14: Lambda1 0.34999999999999964 Lambda2 0.29999999999999966 [dLambda -0.04999999999999999]
TCL: Setting parameter firsttimestep to 0
TCL: Setting parameter alchLambda to 0.34999999999999964
Info: NONBONDED TABLE R-SQUARED SPACING: 0.0625
Info: NONBONDED TABLE SIZE: 705 POINTS
TCL: Setting parameter alchLambda2 to 0.29999999999999966
Info: NONBONDED TABLE R-SQUARED SPACING: 0.0625
Info: NONBONDED TABLE SIZE: 705 POINTS
TCL: Running for 1500000 steps
ETITLE: TS BOND ANGLE DIHED IMPRP ELECT VDW BOUNDARY MISC KINETIC TOTAL TEMP POTENTIAL TOTALAVG TEMPAVG PRESSURE GPRESSURE VOLUME PRESSAVG GPRESSAVG
ENERGY: 0 2.5015 10.3638 4.7269 0.0000 -10643.5459 1437.3917 0.0000 0.0000 1770.8406 -7417.7213 300.3463 -9188.5619 -7417.7213 300.3463 304.1969 379.4110 30265.5271 304.1969 379.4110
ENERGY: 300000 0.8036 7.8158 5.4905 0.0000 -10554.4626 1328.2221 0.0000 0.0000 1774.7966 -7437.3341 301.0173 -9212.1306 -7463.2129 298.0292 -923.5480 -787.0090 30615.5102 -270.3016 -185.5260
ENERGY: 600000 4.0524 11.5888 6.3737 0.0000 -10750.9191 1443.5094 0.0000 0.0000 1750.5565 -7534.8382 296.9060 -9285.3948 -7449.4220 300.1446 -111.3939 -122.3234 30298.4781 -218.5364 -154.6986
ENERGY: 900000 4.2855 12.5542 4.9159 0.0000 -10734.5326 1455.6187 0.0000 0.0000 1707.8745 -7549.2838 289.6669 -9257.1583 -7466.1246 299.6767 70.5880 97.5434 30038.6822 -88.0531 -30.9548
ENERGY: 1200000 1.7536 15.1841 4.8070 0.0000 -10847.3923 1531.0156 0.0000 0.0000 1782.8313 -7511.8008 302.3800 -9294.6320 -7470.8350 299.7449 742.1565 818.5102 29909.8852 17.2466 69.1396
ENERGY: 1500000 3.7254 11.5507 3.6252 0.0000 -10639.9871 1416.7385 0.0000 0.0000 1771.6748 -7432.6724 300.4878 -9204.3473 -7476.0259 299.0734 -207.9223 -145.1434 30507.0174 -14.4055 41.5799
TCL: Running FEP window  15: Lambda1 0.29999999999999966 Lambda2 0.24999999999999967 [dLambda -0.04999999999999999]
TCL: Setting parameter firsttimestep to 0
TCL: Setting parameter alchLambda to 0.29999999999999966
Info: NONBONDED TABLE R-SQUARED SPACING: 0.0625
Info: NONBONDED TABLE SIZE: 705 POINTS
TCL: Setting parameter alchLambda2 to 0.24999999999999967
Info: NONBONDED TABLE R-SQUARED SPACING: 0.0625
Info: NONBONDED TABLE SIZE: 705 POINTS
TCL: Running for 1500000 steps
ETITLE: TS BOND ANGLE DIHED IMPRP ELECT VDW BOUNDARY MISC KINETIC TOTAL TEMP POTENTIAL TOTALAVG TEMPAVG PRESSURE GPRESSURE VOLUME PRESSAVG GPRESSAVG
ENERGY: 0 3.7254 11.5507 3.6252 0.0000 -10639.9858 1417.3429 0.0000 0.0000 1770.7823 -7432.9594 300.3364 -9203.7417 -7432.9594 300.3364 -228.7903 -146.6965 30507.0174 -228.7903 -146.6965
ENERGY: 300000 2.8281 10.3017 4.4987 0.0000 -10612.3828 1365.0846 0.0000 0.0000 1797.3581 -7432.3115 304.8439 -9229.6696 -7455.1793 300.6702 -591.1224 -510.8164 30333.4147 -256.0101 -185.0074
ENERGY: 600000 2.9600 9.5112 5.2156 0.0000 -10653.5520 1433.2937 0.0000 0.0000 1761.6848 -7440.8867 298.7934 -9202.5715 -7453.3656 301.5367 -240.4428 -134.4827 30780.0255 -196.2717 -122.3844
ENERGY: 900000 1.0407 11.4375 4.8763 0.0000 -10680.9328 1435.5800 0.0000 0.0000 1798.5986 -7429.3998 305.0543 -9227.9983 -7445.8788 303.0682 92.2364 178.9087 30325.4603 -112.3582 -30.6345
ENERGY: 1200000 0.3804 7.8805 7.1535 0.0000 -10654.0664 1388.7221 0.0000 0.0000 1733.4849 -7516.4450 294.0105 -9249.9298 -7466.7462 302.1376 -403.8208 -332.4676 30204.9868 -161.5494 -83.2944
ENERGY: 1500000 3.9021 7.8769 3.8334 0.0000 -10733.3687 1409.0492 0.0000 0.0000 1803.8129 -7504.8943 305.9386 -9308.7072 -7470.7986 302.6244 -498.7317 -311.2502 29959.1875 -161.3269 -76.7191
TCL: Running FEP window  16: Lambda1 0.24999999999999967 Lambda2 0.19999999999999968 [dLambda -0.04999999999999999]
TCL: Setting parameter firsttimestep to 0
TCL: Setting parameter alchLambda to 0.24999999999999967
Info: NONBONDED TABLE R-SQUARED SPACING: 0.0625
Info: NONBONDED TABLE SIZE: 705 POINTS
TCL: Setting parameter alchLambda2 to 0.19999999999999968
Info: NONBONDED TABLE R-SQUARED SPACING: 0.0625
Info: NONBONDED TABLE SIZE: 705 POINTS
TCL: Running for 1500000 steps
ETITLE: TS BOND ANGLE DIHED IMPRP ELECT VDW BOUNDARY MISC KINETIC TOTAL TEMP POTENTIAL TOTALAVG TEMPAVG PRESSURE GPRESSURE VOLUME PRESSAVG GPRESSAVG
ENERGY: 0 3.9021 7.8769 3.8334 0.0000 -10733.3681 1409.4688 0.0000 0.0000 1802.9756 -7505.3113 305.7966 -9308.2869 -7505.3113 305.7966 -406.8377 -311.9778 29959.1875 -406.8377 -311.9778
ENERGY: 300000 2.1771 9.0475 4.6269 0.0000 -10717.2320 1441.9846 0.0000 0.0000 1780.6689 -7478.7270 302.0133 -9259.3959 -7499.4223 300.9427 -128.1608 -45.4925 30289.7738 -193.4235 -121.8416
ENERGY: 600000 4.2395 10.5125 4.6996 0.0000 -10606.7060 1380.4538 0.0000 0.0000 1729.1622 -7477.6383 293.2774 -9206.8006 -7486.6236 300.1249 -448.4210 -413.0884 30266.0206 -286.1225 -223.1841
ENERGY: 900000 1.4312 10.6464 3.9755 0.0000 -10713.9145 1440.1181 0.0000 0.0000 1754.0122 -7503.7310 297.4921 -9257.7432 -7471.1876 300.2313 134.8242 229.9887 29728.2305 -107.9702 -50.1417
ENERGY: 1200000 2.4757 11.9484 4.8907 0.0000 -10715.9111 1452.1805 0.0000 0.0000 1779.2092 -7465.2065 301.7657 -9244.4157 -7455.0125 302.3437 -178.0838 -126.7615 30694.6487 -122.5010 -60.8553
ENERGY: 1500000 2.2345 11.5029 7.5793 0.0000 -10800.6179 1446.7918 0.0000 0.0000 1765.9951 -7566.5143 299.5245 -9332.5094 -7464.1536 301.6067 -162.4282 -22.3825 30341.6351 -136.4072 -64.0396
TCL: Running FEP window  17: Lambda1 0.19999999999999968 Lambda2 0.1499999999999997 [dLambda -0.04999999999999999]
TCL: Setting parameter firsttimestep to 0
TCL: Setting parameter alchLambda to 0.19999999999999968
Info: NONBONDED TABLE R-SQUARED SPACING: 0.0625
Info: NONBONDED TABLE SIZE: 705 POINTS
TCL: Setting parameter alchLambda2 to 0.1499999999999997
Info: NONBONDED TABLE R-SQUARED SPACING: 0.0625
Info: NONBONDED TABLE SIZE: 705 POINTS
TCL: Running for 1500000 steps
ETITLE: TS BOND ANGLE DIHED IMPRP ELECT VDW BOUNDARY MISC KINETIC TOTAL TEMP POTENTIAL TOTALAVG TEMPAVG PRESSURE GPRESSURE VOLUME PRESSAVG GPRESSAVG
ENERGY: 0 2.2345 11.5029 7.5793 0.0000 -10800.6190 1447.3100 0.0000 0.0000 1765.1165 -7566.8759 299.3755 -9331.9924 -7566.8759 299.3755 -109.0740 -24.9105 30341.6351 -109.0740 -24.9105
ENERGY: 300000 0.8472 10.8515 6.1839 0.0000 -10646.8234 1423.6459 0.0000 0.0000 1776.2571 -7429.0378 301.2650 -9205.2949 -7520.2185 298.7275 -83.1068 4.8909 30335.5784 -86.5470 11.0486
ENERGY: 600000 2.7861 15.6215 5.3078 0.0000 -10807.8084 1472.9416 0.0000 0.0000 1737.5078 -7573.6436 294.6929 -9311.1514 -7526.4141 298.0987 132.4479 229.4619 29606.9712 -178.5887 -89.9968
ENERGY: 900000 2.1512 10.2414 3.9564 0.0000 -10631.8906 1423.9574 0.0000 0.0000 1773.0608 -7418.5233 300.7229 -9191.5841 -7514.5504 298.8899 9.7365 76.2604 30437.7091 -119.1759 -32.7722
ENERGY: 1200000 1.1922 9.1193 6.0222 0.0000 -10743.0214 1435.5995 0.0000 0.0000 1804.4325 -7486.6557 306.0437 -9291.0883 -7502.9396 298.9156 -357.9470 -369.1817 30670.4232 -125.3473 -49.4306
ENERGY: 1500000 7.2437 9.5562 4.9914 0.0000 -10760.5960 1462.0932 0.0000 0.0000 1774.7641 -7501.9474 301.0118 -9276.7115 -7496.5130 298.9878 18.3587 135.2721 29975.3599 -164.2911 -89.7029
TCL: Running FEP window  18: Lambda1 0.1499999999999997 Lambda2 0.09999999999999969 [dLambda -0.05 ]
TCL: Setting parameter firsttimestep to 0
TCL: Setting parameter alchLambda to 0.1499999999999997
Info: NONBONDED TABLE R-SQUARED SPACING: 0.0625
Info: NONBONDED TABLE SIZE: 705 POINTS
TCL: Setting parameter alchLambda2 to 0.09999999999999969
Info: NONBONDED TABLE R-SQUARED SPACING: 0.0625
Info: NONBONDED TABLE SIZE: 705 POINTS
TCL: Running for 1500000 steps
ETITLE: TS BOND ANGLE DIHED IMPRP ELECT VDW BOUNDARY MISC KINETIC TOTAL TEMP POTENTIAL TOTALAVG TEMPAVG PRESSURE GPRESSURE VOLUME PRESSAVG GPRESSAVG
ENERGY: 0 7.2437 9.5562 4.9914 0.0000 -10760.5955 1462.0531 0.0000 0.0000 1773.8503 -7502.9008 300.8568 -9276.7510 -7502.9008 300.8568 20.1772 130.6929 29975.3599 20.1772 130.6929
ENERGY: 300000 3.5338 10.6212 4.4536 0.0000 -10628.1020 1452.9725 0.0000 0.0000 1741.7478 -7414.7732 295.4120 -9156.5210 -7465.9760 298.5237 45.6090 82.8875 30471.7945 164.1896 225.6540
ENERGY: 600000 4.4238 6.9493 3.8201 0.0000 -10513.1277 1384.7643 0.0000 0.0000 1785.7564 -7327.4139 302.8761 -9113.1703 -7440.0035 299.7735 -489.3147 -487.2436 31185.8086 -65.7225 -12.2553
ENERGY: 900000 3.0835 9.6737 3.9784 0.0000 -10783.2972 1463.4869 0.0000 0.0000 1783.0048 -7520.0699 302.4094 -9303.0748 -7455.7144 300.3174 74.0103 166.9105 30079.6975 -103.5322 -41.3243
ENERGY: 1200000 2.1146 9.6809 4.9648 0.0000 -10813.7371 1492.1944 0.0000 0.0000 1729.8781 -7574.9044 293.3988 -9304.7825 -7470.9091 300.6399 163.2758 186.2226 30385.9453 -56.8506 0.7410
ENERGY: 1500000 2.7974 9.6457 4.5190 0.0000 -10759.5164 1451.3159 0.0000 0.0000 1800.1239 -7491.1145 305.3130 -9291.2384 -7469.5674 300.6515 -29.6524 -10.8163 30305.3383 -79.7991 -16.7863
TCL: Running FEP window  19: Lambda1 0.09999999999999969 Lambda2 0.049999999999999684 [dLambda -0.05 ]
TCL: Setting parameter firsttimestep to 0
TCL: Setting parameter alchLambda to 0.09999999999999969
Info: NONBONDED TABLE R-SQUARED SPACING: 0.0625
Info: NONBONDED TABLE SIZE: 705 POINTS
TCL: Setting parameter alchLambda2 to 0.049999999999999684
Info: NONBONDED TABLE R-SQUARED SPACING: 0.0625
Info: NONBONDED TABLE SIZE: 705 POINTS
TCL: Running for 1500000 steps
ETITLE: TS BOND ANGLE DIHED IMPRP ELECT VDW BOUNDARY MISC KINETIC TOTAL TEMP POTENTIAL TOTALAVG TEMPAVG PRESSURE GPRESSURE VOLUME PRESSAVG GPRESSAVG
ENERGY: 0 2.7974 9.6457 4.5190 0.0000 -10759.5157 1451.1005 0.0000 0.0000 1799.2504 -7492.2028 305.1648 -9291.4531 -7492.2028 305.1648 -96.1643 -16.1306 30305.3383 -96.1643 -16.1306
ENERGY: 300000 1.3365 11.8741 3.5426 0.0000 -10574.1562 1344.9913 0.0000 0.0000 1751.9370 -7460.4747 297.1401 -9212.4117 -7415.7839 303.2145 -751.2414 -667.5321 30566.1333 -6.7110 64.7345
ENERGY: 600000 0.9714 7.6723 8.2377 0.0000 -10658.7772 1411.7588 0.0000 0.0000 1747.4511 -7482.6858 296.3793 -9230.1370 -7452.1363 299.4387 -126.7768 -46.0248 30138.0895 -99.1032 -21.9101
ENERGY: 900000 1.6215 13.4873 5.6225 0.0000 -10667.3127 1398.4130 0.0000 0.0000 1732.5293 -7515.6391 293.8485 -9248.1684 -7457.7615 300.9149 -275.8954 -277.7531 30073.0818 -18.4417 55.9340
ENERGY: 1200000 2.5040 6.9757 5.0084 0.0000 -10752.0026 1563.5642 0.0000 0.0000 1753.1467 -7420.8036 297.3453 -9173.9503 -7459.7132 300.4103 1087.1074 1134.6116 30552.2771 72.8733 142.4429
ENERGY: 1500000 4.3795 13.5854 5.8749 0.0000 -10654.6810 1399.3351 0.0000 0.0000 1806.5342 -7424.9720 306.4002 -9231.5063 -7456.2582 300.7914 -651.2859 -643.3007 30708.1709 65.1846 125.8350
TCL: Running FEP window  20: Lambda1 0.049999999999999684 Lambda2 0.0    [dLambda -0.049999999999999684]
TCL: Setting parameter firsttimestep to 0
TCL: Setting parameter alchLambda to 0.049999999999999684
Info: NONBONDED TABLE R-SQUARED SPACING: 0.0625
Info: NONBONDED TABLE SIZE: 705 POINTS
TCL: Setting parameter alchLambda2 to 0.0
Info: NONBONDED TABLE R-SQUARED SPACING: 0.0625
Info: NONBONDED TABLE SIZE: 705 POINTS
TCL: Running for 1500000 steps
ETITLE: TS BOND ANGLE DIHED IMPRP ELECT VDW BOUNDARY MISC KINETIC TOTAL TEMP POTENTIAL TOTALAVG TEMPAVG PRESSURE GPRESSURE VOLUME PRESSAVG GPRESSAVG
ENERGY: 0 4.3795 13.5854 5.8749 0.0000 -10654.6819 1398.8872 0.0000 0.0000 1805.6556 -7426.2994 306.2512 -9231.9551 -7426.2994 306.2512 -725.0520 -646.7819 30708.1709 -725.0520 -646.7819
ENERGY: 300000 1.6587 10.8826 4.5450 0.0000 -10784.6023 1500.5966 0.0000 0.0000 1794.6697 -7472.2496 304.3879 -9266.9194 -7495.0724 303.6014 422.0470 507.3987 30060.3251 -44.2552 26.7647
ENERGY: 600000 3.1982 6.1687 5.8772 0.0000 -10612.2335 1366.6883 0.0000 0.0000 1803.8184 -7426.4827 305.9396 -9230.3011 -7477.7806 302.6206 -546.2488 -477.2293 30249.9000 -128.7290 -73.2155
ENERGY: 900000 3.3850 10.1795 4.7892 0.0000 -10629.8754 1377.5728 0.0000 0.0000 1755.6735 -7478.2755 297.7739 -9233.9490 -7484.6227 301.2200 -671.6285 -600.4838 30525.6745 -131.4819 -79.3228
ENERGY: 1200000 1.3376 10.3370 4.2422 0.0000 -10775.2905 1507.7522 0.0000 0.0000 1810.7557 -7440.8658 307.1162 -9251.6215 -7478.1884 302.0762 860.6410 915.4697 29729.9522 -62.9134 -8.3483
ENERGY: 1500000 1.2681 18.2941 5.6730 0.0000 -10612.8767 1417.3909 0.0000 0.0000 1755.2387 -7415.0120 297.7001 -9170.2507 -7485.9637 300.9728 -124.6965 -77.8407 30375.9359 -49.5014 0.5078
TCL: Exiting due to exit command.
