Info: SIMULATION PARAMETERS:
Info: TIMESTEP               2
Info: NUMBER OF STEPS        0
Info: STEPS PER CYCLE        10
Info: PERIODIC CELL BASIS 1  35.0118 0 0
Info: PERIODIC CELL BASIS 2  0 30.358 0
Info: PERIODIC CELL BASIS 3  0 0 29.3195
Info: PERIODIC CELL CENTER   0 0 0
Info: WRAPPING WATERS AROUND PERIODIC BOUNDARIES ON OUTPUT.
Info: WRAPPING ALL CLUSTERS AROUND PERIODIC BOUNDARIES ON OUTPUT.
Info: FIRST LDB TIMESTEP     50
Info: LAST LDB TIMESTEP     -1
Info: HOM BACKGROUND SCALING 1
Info: PME BACKGROUND SCALING 1
Info: MIN ATOMS PER PATCH    40
Info: EMPTY PATCH LOAD       40 ATOMS
Info: VELOCITY FILE          mobley_7913234_equil.vel
Info: CENTER OF MASS MOVING INITIALLY? NO
Info: DIELECTRIC             1
Info: EXCLUDE                SCALED ONE-FOUR
Info: 1-4 ELECTROSTATICS SCALED BY 0.833333
Info: MODIFIED 1-4 VDW PARAMETERS WILL BE USED
Info: DCD FILENAME           mobley_7913234_prod.dcd
Info: DCD FREQUENCY          100000
Info: DCD FIRST STEP         100000
Info: DCD FILE WILL CONTAIN UNIT CELL DATA
Info: XST FILENAME           mobley_7913234_prod.xst
Info: XST FREQUENCY          100000
Info: NO VELOCITY DCD OUTPUT
Info: NO FORCE DCD OUTPUT
Info: OUTPUT FILENAME        mobley_7913234_prod
Info: BINARY OUTPUT FILES WILL BE USED
Info: RESTART FILENAME       mobley_7913234_prod.restart
Info: RESTART FREQUENCY      100000
Info: BINARY RESTART FILES WILL BE USED
Info: CUTOFF                 9
Info: PAIRLIST DISTANCE      11
Info: PAIRLIST SHRINK RATE   0.01
Info: PAIRLIST GROW RATE     0.01
Info: PAIRLIST TRIGGER       0.3
Info: PAIRLISTS PER CYCLE    2
Info: PAIRLISTS ENABLED
Info: MARGIN                 2
Info: HYDROGEN GROUP CUTOFF  2.5
Info: PATCH DIMENSION        15.5
Info: ENERGY OUTPUT STEPS    100000
Info: ENERGY EVALUATION STEPS    100000
Info: OUTPUT ENERGY PRECISION 4
Info: CROSSTERM ENERGY INCLUDED IN DIHEDRAL
Info: TIMING OUTPUT STEPS    1000000
Info: PRESSURE OUTPUT STEPS  100000
Info: ALCHEMICAL FEP ON
Info: FEP CURRENT LAMBDA VALUE     0
Info: FEP COMPARISON LAMBDA VALUE  0.05
Info: FEP INTRA-ALCHEMICAL NON-BONDED INTERACTIONS WILL BE RETAINED
Info: FEP INTRA-ALCHEMICAL BONDED INTERACTIONS WILL BE RETAINED
Info: FEP VDW SHIFTING COEFFICIENT 5
Info: FEP ELEC. ACTIVE FOR ANNIHILATED PARTICLES BETWEEN LAMBDA = 0 AND LAMBDA = 0.5
Info: FEP ELEC. ACTIVE FOR EXNIHILATED PARTICLES BETWEEN LAMBDA = 0.5 AND LAMBDA = 1
Info: FEP VDW ACTIVE FOR ANNIHILATED PARTICLES BETWEEN LAMBDA = 0 AND LAMBDA = 1
Info: FEP VDW ACTIVE FOR EXNIHILATED PARTICLES BETWEEN LAMBDA = 0 AND LAMBDA = 1
Info: FEP BOND ACTIVE FOR ANNIHILATED PARTICLES BETWEEN LAMBDA = 1 AND LAMBDA = 1
Info: FEP BOND ACTIVE FOR EXNIHILATED PARTICLES BETWEEN LAMBDA = 0 AND LAMBDA = 0
Info: LANGEVIN DYNAMICS ACTIVE
Info: LANGEVIN TEMPERATURE   300
Info: LANGEVIN USING BBK INTEGRATOR
Info: LANGEVIN DAMPING COEFFICIENT IS 1 INVERSE PS
Info: LANGEVIN DYNAMICS APPLIED TO HYDROGENS
Info: LANGEVIN PISTON PRESSURE CONTROL ACTIVE
Info:        TARGET PRESSURE IS 1.01325 BAR
Info:     OSCILLATION PERIOD IS 50 FS
Info:             DECAY TIME IS 25 FS
Info:     PISTON TEMPERATURE IS 300 K
Info:       PRESSURE CONTROL IS GROUP-BASED
Info:    INITIAL STRAIN RATE IS 0.000259632 0.000259632 0.000259632
Info:       CELL FLUCTUATION IS ISOTROPIC
Info: PARTICLE MESH EWALD (PME) ACTIVE
Info: PME TOLERANCE               1e-06
Info: PME EWALD COEFFICIENT       0.348832
Info: PME INTERPOLATION ORDER     4
Info: PME GRID DIMENSIONS         36 32 32
Info: PME MAXIMUM GRID SPACING    1
Info: PME CALCULATION WILL BE PERFORMED ON GPU
Info: FULL ELECTROSTATIC EVALUATION FREQUENCY      2
Info: USING VERLET I (r-RESPA) MTS SCHEME.
Info: C1 SPLITTING OF LONG RANGE ELECTROSTATICS
Info: PLACING ATOMS IN PATCHES BY HYDROGEN GROUPS
Info: RIGID BONDS TO HYDROGEN : ALL
Info:         ERROR TOLERANCE : 1e-08
Info:          MAX ITERATIONS : 100
Info: RIGID WATER USING SETTLE ALGORITHM
Info: RANDOM NUMBER SEED     1744026931
Info: USE HYDROGEN BONDS?    NO
Info: Using AMBER format force field!
Info: AMBER PARM FILE        mobley_7913234.prmtop
Info: COORDINATE PDB         mobley_7913234.pdb
Info: Exclusions will be read from PARM file!
Info: SCNB (VDW SCALING)     2
Info: USING ARITHMETIC MEAN TO COMBINE L-J SIGMA PARAMETERS
Info: BINARY COORDINATES     mobley_7913234_equil.coor
Info: SUMMARY OF PARAMETERS:
Info: 8 BONDS
Info: 11 ANGLES
Info:   11 HARMONIC
Info:   0 COSINE-BASED
Info: 14 DIHEDRAL
Info: 0 IMPROPER
Info: 0 CROSSTERM
Info: 0 VDW
Info: 28 VDW_PAIRS
Info: 0 NBTHOLE_PAIRS
Info: To read alchdata from file: mobley_7913234.pdb
Info: To read alchflag data from column: 5
Info: STRUCTURE SUMMARY:
Info: 2998 ATOMS
Info: 2997 BONDS
Info: 44 ANGLES
Info: 69 DIHEDRALS
Info: 0 IMPROPERS
Info: 0 CROSSTERMS
Info: 3095 EXCLUSIONS
Info: 2989 RIGID BONDS
Info: ALCH: 0 ATOMS TO DISAPPEAR IN FINAL STATE
Info: ALCH: 25 ATOMS TO APPEAR IN FINAL STATE
Info: 6005 DEGREES OF FREEDOM
Info: 1000 HYDROGEN GROUPS
Info: 4 ATOMS IN LARGEST HYDROGEN GROUP
Info: 1000 MIGRATION GROUPS
Info: 4 ATOMS IN LARGEST MIGRATION GROUP
Info: TOTAL MASS = 17986.1 amu
Info: TOTAL CHARGE = -0.000300016 e
Info: MASS DENSITY = 0.958409 g/cm^3
Info: ATOM DENSITY = 0.0962027 atoms/A^3
Info: ADDED 0 IMPLICIT EXCLUSIONS
Info: NONBONDED TABLE R-SQUARED SPACING: 0.0625
Info: NONBONDED TABLE SIZE: 705 POINTS
Info: REMOVING COM VELOCITY 0.154319 -0.0217002 -0.00423176
Info: Use 3D box decompostion in PME FFT.
Info: Updated CUDA force table with 4096 elements.
Info: Updated CUDA LJ table with 7 x 7 elements.
Info: Found 26 unique exclusion lists needing 88 bytes
TCL: Running for 1500000 steps
ETITLE: TS BOND ANGLE DIHED IMPRP ELECT VDW BOUNDARY MISC KINETIC TOTAL TEMP POTENTIAL TOTALAVG TEMPAVG PRESSURE GPRESSURE VOLUME PRESSAVG GPRESSAVG
ENERGY: 0 2.0327 7.7392 5.8845 0.0000 -10715.8393 1421.4852 0.0000 0.0000 1787.5153 -7491.1823 299.5899 -9278.6976 -7491.1823 299.5899 -312.3756 -223.2326 31163.3731 -312.3756 -223.2326
ENERGY: 300000 1.1673 9.9797 6.0051 0.0000 -11098.7397 1591.6319 0.0000 0.0000 1785.1568 -7704.7990 299.1946 -9489.9557 -7610.3855 297.7290 902.8420 967.5384 29972.0061 427.5514 491.5827
ENERGY: 600000 1.0349 9.6340 3.9442 0.0000 -10882.5971 1468.2020 0.0000 0.0000 1806.7298 -7593.0523 302.8102 -9399.7820 -7595.8729 298.2387 140.0949 139.6512 30261.0215 164.2643 235.8490
ENERGY: 900000 3.5984 10.2969 6.7559 0.0000 -10838.6638 1511.8555 0.0000 0.0000 1762.9211 -7543.2361 295.4679 -9306.1571 -7576.4663 297.7030 333.9990 408.9319 30315.2177 159.8304 223.0524
ENERGY: 1200000 1.7862 11.4571 5.4560 0.0000 -10914.6260 1515.9461 0.0000 0.0000 1801.2623 -7578.7184 301.8939 -9379.9807 -7580.2777 297.9282 476.1440 493.5232 30361.5501 174.5024 246.3561
ENERGY: 1500000 1.3525 12.5000 4.3669 0.0000 -11011.5753 1548.4191 0.0000 0.0000 1814.0334 -7630.9034 304.0344 -9444.9368 -7579.7380 299.3372 487.5174 589.0373 30121.0146 184.9014 259.6481
TCL: Running FEP window   2: Lambda1 0.05   Lambda2 0.1    [dLambda 0.05  ]
TCL: Setting parameter firsttimestep to 0
TCL: Setting parameter alchLambda to 0.05
Info: NONBONDED TABLE R-SQUARED SPACING: 0.0625
Info: NONBONDED TABLE SIZE: 705 POINTS
TCL: Setting parameter alchLambda2 to 0.1
Info: NONBONDED TABLE R-SQUARED SPACING: 0.0625
Info: NONBONDED TABLE SIZE: 705 POINTS
TCL: Running for 1500000 steps
ETITLE: TS BOND ANGLE DIHED IMPRP ELECT VDW BOUNDARY MISC KINETIC TOTAL TEMP POTENTIAL TOTALAVG TEMPAVG PRESSURE GPRESSURE VOLUME PRESSAVG GPRESSAVG
ENERGY: 0 1.3526 12.5000 4.3669 0.0000 -11011.5755 1555.0175 0.0000 0.0000 1813.1656 -7625.1730 303.8889 -9438.3386 -7625.1730 303.8889 504.7420 600.3749 30121.0146 504.7420 600.3749
ENERGY: 300000 1.6632 12.5962 7.6450 0.0000 -10843.4875 1488.8584 0.0000 0.0000 1790.9124 -7541.8123 300.1592 -9332.7247 -7553.8847 304.2789 302.2632 379.9851 30597.1072 44.3308 103.7221
ENERGY: 600000 3.0791 9.4365 5.6292 0.0000 -10635.0311 1357.1926 0.0000 0.0000 1833.9746 -7425.7191 307.3765 -9259.6937 -7550.5890 303.5911 -794.8995 -752.5492 31180.0892 -185.3190 -116.6343
ENERGY: 900000 4.0414 11.3992 6.4025 0.0000 -10778.8762 1380.6235 0.0000 0.0000 1816.3040 -7560.1056 304.4149 -9376.4095 -7533.9611 304.8708 -697.6090 -644.7197 30537.6792 -133.2904 -68.3177
ENERGY: 1200000 2.8993 12.0175 4.9027 0.0000 -10823.1078 1428.4861 0.0000 0.0000 1766.0048 -7608.7974 295.9847 -9374.8021 -7542.1949 302.8422 -235.9480 -176.6885 30299.8738 -184.7420 -131.1047
ENERGY: 1500000 1.7291 8.5140 3.9821 0.0000 -10799.4366 1443.8460 0.0000 0.0000 1811.8265 -7529.5388 303.6645 -9341.3653 -7543.2004 301.8177 -101.5090 -56.3784 30480.9638 -212.4393 -165.5061
TCL: Running FEP window   3: Lambda1 0.1    Lambda2 0.15000000000000002 [dLambda 0.05000000000000002]
TCL: Setting parameter firsttimestep to 0
TCL: Setting parameter alchLambda to 0.1
Info: NONBONDED TABLE R-SQUARED SPACING: 0.0625
Info: NONBONDED TABLE SIZE: 705 POINTS
TCL: Setting parameter alchLambda2 to 0.15000000000000002
Info: NONBONDED TABLE R-SQUARED SPACING: 0.0625
Info: NONBONDED TABLE SIZE: 705 POINTS
TCL: Running for 1500000 steps
ETITLE: TS BOND ANGLE DIHED IMPRP ELECT VDW BOUNDARY MISC KINETIC TOTAL TEMP POTENTIAL TOTALAVG TEMPAVG PRESSURE GPRESSURE VOLUME PRESSAVG GPRESSAVG
ENERGY: 0 1.7291 8.5140 3.9821 0.0000 -10799.4370 1446.4915 0.0000 0.0000 1810.9354 -7527.7848 303.5151 -9338.7201 -7527.7848 303.5151 -133.9281 -48.5728 30480.9638 -133.9281 -48.5728
ENERGY: 300000 1.2879 9.1875 7.9850 0.0000 -10842.3298 1513.4166 0.0000 0.0000 1804.5924 -7505.8604 302.4520 -9310.4528 -7531.5471 300.1676 629.0361 659.3178 30576.0331 342.6242 375.3904
ENERGY: 600000 4.8656 9.6437 6.2108 0.0000 -10791.2273 1445.8241 0.0000 0.0000 1766.2824 -7558.4007 296.0312 -9324.6831 -7549.4596 298.9882 -225.2156 -187.0520 30592.0355 35.0982 75.6215
ENERGY: 900000 6.5750 13.7327 6.8339 0.0000 -10773.7937 1440.5231 0.0000 0.0000 1822.6221 -7483.5068 305.4738 -9306.1290 -7540.0628 299.2430 -184.0700 -130.1438 30781.0935 22.2824 59.2040
ENERGY: 1200000 3.8172 16.2968 6.8850 0.0000 -10822.6823 1461.0644 0.0000 0.0000 1753.8675 -7580.7515 293.9505 -9334.6190 -7550.0724 298.7242 201.8154 168.2401 30324.7467 -91.9998 -55.7053
ENERGY: 1500000 4.1854 15.0790 4.8550 0.0000 -10843.5639 1448.1503 0.0000 0.0000 1748.7669 -7622.5272 293.0956 -9371.2942 -7552.2741 298.7569 -308.6721 -237.6109 30656.9605 -155.2811 -114.2107
TCL: Running FEP window   4: Lambda1 0.15000000000000002 Lambda2 0.2    [dLambda 0.04999999999999999]
TCL: Setting parameter firsttimestep to 0
TCL: Setting parameter alchLambda to 0.15000000000000002
Info: NONBONDED TABLE R-SQUARED SPACING: 0.0625
Info: NONBONDED TABLE SIZE: 705 POINTS
TCL: Setting parameter alchLambda2 to 0.2
Info: NONBONDED TABLE R-SQUARED SPACING: 0.0625
Info: NONBONDED TABLE SIZE: 705 POINTS
TCL: Running for 1500000 steps
ETITLE: TS BOND ANGLE DIHED IMPRP ELECT VDW BOUNDARY MISC KINETIC TOTAL TEMP POTENTIAL TOTALAVG TEMPAVG PRESSURE GPRESSURE VOLUME PRESSAVG GPRESSAVG
ENERGY: 0 4.1854 15.0790 4.8550 0.0000 -10843.5649 1449.6492 0.0000 0.0000 1747.8725 -7621.9237 292.9457 -9369.7962 -7621.9237 292.9457 -307.0894 -225.2633 30656.9605 -307.0894 -225.2633
ENERGY: 300000 2.9242 10.6561 4.5905 0.0000 -10773.0492 1461.9842 0.0000 0.0000 1809.0376 -7483.8566 303.1970 -9292.8942 -7574.9336 298.0982 207.7319 303.2164 30511.7273 -119.5646 -26.7284
ENERGY: 600000 2.0972 12.2665 4.4027 0.0000 -10791.7992 1497.0070 0.0000 0.0000 1816.4564 -7459.5694 304.4405 -9276.0258 -7564.6947 298.2990 489.0813 540.0055 30403.3499 3.4982 84.7663
ENERGY: 900000 0.9034 11.6933 8.3872 0.0000 -10897.0646 1473.7543 0.0000 0.0000 1799.5045 -7602.8218 301.5993 -9402.3263 -7568.9209 298.9592 -62.8809 -7.5644 30651.3480 -43.4884 20.9214
ENERGY: 1200000 5.5042 10.5444 4.2391 0.0000 -10810.3782 1503.7979 0.0000 0.0000 1779.7987 -7506.4939 298.2966 -9286.2926 -7574.3592 298.3156 438.1926 542.5362 30576.2469 -98.4804 -37.1831
ENERGY: 1500000 3.5629 12.4962 4.5513 0.0000 -10763.2706 1406.9723 0.0000 0.0000 1813.9968 -7521.6911 304.0282 -9335.6879 -7553.8579 299.6252 -489.7395 -405.3698 30860.6617 -110.2245 -47.3680
TCL: Running FEP window   5: Lambda1 0.2    Lambda2 0.25   [dLambda 0.04999999999999999]
TCL: Setting parameter firsttimestep to 0
TCL: Setting parameter alchLambda to 0.2
Info: NONBONDED TABLE R-SQUARED SPACING: 0.0625
Info: NONBONDED TABLE SIZE: 705 POINTS
TCL: Setting parameter alchLambda2 to 0.25
Info: NONBONDED TABLE R-SQUARED SPACING: 0.0625
Info: NONBONDED TABLE SIZE: 705 POINTS
TCL: Running for 1500000 steps
ETITLE: TS BOND ANGLE DIHED IMPRP ELECT VDW BOUNDARY MISC KINETIC TOTAL TEMP POTENTIAL TOTALAVG TEMPAVG PRESSURE GPRESSURE VOLUME PRESSAVG GPRESSAVG
ENERGY: 0 3.5629 12.4962 4.5513 0.0000 -10763.2691 1408.0934 0.0000 0.0000 1813.1127 -7521.4527 303.8800 -9334.5654 -7521.4527 303.8800 -483.1096 -399.1038 30860.6617 -483.1096 -399.1038
ENERGY: 300000 3.6943 13.9949 5.0990 0.0000 -10911.6489 1496.7477 0.0000 0.0000 1782.7707 -7609.3422 298.7947 -9392.1129 -7568.7064 303.0534 205.5407 238.1453 30329.1510 -186.8726 -131.1572
ENERGY: 600000 1.3865 13.2663 5.9817 0.0000 -10765.2045 1396.3258 0.0000 0.0000 1776.3011 -7571.9431 297.7104 -9348.2442 -7560.2452 303.5889 -722.0876 -640.0313 30819.1272 -116.4595 -60.4650
ENERGY: 900000 2.5962 9.7373 5.9668 0.0000 -10808.9736 1433.7217 0.0000 0.0000 1738.4836 -7618.4681 291.3721 -9356.9517 -7566.8031 301.5475 -286.2672 -241.2482 30629.5279 -63.2147 -13.2053
ENERGY: 1200000 3.5814 8.9713 4.1180 0.0000 -10889.4582 1423.5388 0.0000 0.0000 1725.1738 -7724.0749 289.1414 -9449.2487 -7579.9304 300.8369 -566.2465 -477.1572 30494.2716 -158.1735 -108.9439
ENERGY: 1500000 1.6315 10.7651 7.0807 0.0000 -10812.1246 1440.3932 0.0000 0.0000 1830.6270 -7521.6271 306.8155 -9352.2541 -7571.3500 300.6998 -178.8175 -154.1857 30888.2402 -109.3215 -58.1194
TCL: Running FEP window   6: Lambda1 0.25   Lambda2 0.3    [dLambda 0.04999999999999999]
TCL: Setting parameter firsttimestep to 0
TCL: Setting parameter alchLambda to 0.25
Info: NONBONDED TABLE R-SQUARED SPACING: 0.0625
Info: NONBONDED TABLE SIZE: 705 POINTS
TCL: Setting parameter alchLambda2 to 0.3
Info: NONBONDED TABLE R-SQUARED SPACING: 0.0625
Info: NONBONDED TABLE SIZE: 705 POINTS
TCL: Running for 1500000 steps
ETITLE: TS BOND ANGLE DIHED IMPRP ELECT VDW BOUNDARY MISC KINETIC TOTAL TEMP POTENTIAL TOTALAVG TEMPAVG PRESSURE GPRESSURE VOLUME PRESSAVG GPRESSAVG
ENERGY: 0 1.6315 10.7651 7.0807 0.0000 -10812.1239 1440.5944 0.0000 0.0000 1829.7636 -7522.2886 306.6707 -9352.0522 -7522.2886 306.6707 -230.7312 -146.6418 30888.2402 -230.7312 -146.6418
ENERGY: 300000 3.1393 10.6128 4.9850 0.0000 -10691.6538 1411.3753 0.0000 0.0000 1810.6401 -7450.9013 303.4656 -9261.5413 -7486.9465 302.8818 -338.2507 -262.0225 31116.2774 -24.7056 40.8213
ENERGY: 600000 6.5719 10.2964 7.1753 0.0000 -10970.9018 1540.7570 0.0000 0.0000 1741.1904 -7664.9109 291.8258 -9406.1013 -7542.8665 298.6505 664.4817 665.0354 30254.7133 -10.7295 51.0008
ENERGY: 900000 2.7382 9.9506 7.5387 0.0000 -10822.7687 1386.4921 0.0000 0.0000 1773.2094 -7642.8397 297.1922 -9416.0491 -7557.8283 298.8746 -919.3728 -891.7903 30948.1084 -101.0662 -44.2380
ENERGY: 1200000 1.2260 14.1423 7.3439 0.0000 -10996.3153 1596.6260 0.0000 0.0000 1799.7546 -7577.2226 301.6412 -9376.9771 -7553.4527 299.9982 1054.1066 1130.4157 30567.8538 24.0414 88.2954
ENERGY: 1500000 1.5895 12.0179 4.5309 0.0000 -10899.1315 1481.6788 0.0000 0.0000 1742.8888 -7656.4256 292.1104 -9399.3144 -7561.4947 299.3492 -73.3460 -40.4459 30758.8320 35.6489 94.2464
TCL: Running FEP window   7: Lambda1 0.3    Lambda2 0.35   [dLambda 0.04999999999999999]
TCL: Setting parameter firsttimestep to 0
TCL: Setting parameter alchLambda to 0.3
Info: NONBONDED TABLE R-SQUARED SPACING: 0.0625
Info: NONBONDED TABLE SIZE: 705 POINTS
TCL: Setting parameter alchLambda2 to 0.35
Info: NONBONDED TABLE R-SQUARED SPACING: 0.0625
Info: NONBONDED TABLE SIZE: 705 POINTS
TCL: Running for 1500000 steps
ETITLE: TS BOND ANGLE DIHED IMPRP ELECT VDW BOUNDARY MISC KINETIC TOTAL TEMP POTENTIAL TOTALAVG TEMPAVG PRESSURE GPRESSURE VOLUME PRESSAVG GPRESSAVG
ENERGY: 0 1.5895 12.0179 4.5309 0.0000 -10899.1307 1483.0921 0.0000 0.0000 1741.9849 -7655.9154 291.9589 -9397.9004 -7655.9154 291.9589 -110.7520 -26.7628 30758.8320 -110.7520 -26.7628
ENERGY: 300000 1.8903 14.7049 4.9104 0.0000 -10872.3308 1451.6834 0.0000 0.0000 1746.8784 -7652.2634 292.7791 -9399.1418 -7606.1818 295.7699 29.7706 122.4488 30329.0356 7.7084 82.9766
ENERGY: 600000 1.8477 9.9534 4.8041 0.0000 -10744.6011 1405.7319 0.0000 0.0000 1807.4488 -7514.8152 302.9308 -9322.2640 -7580.5127 298.4436 -269.2804 -181.8167 30637.2789 -89.8532 -32.1868
ENERGY: 900000 4.7146 11.4973 5.9319 0.0000 -10821.2328 1500.9422 0.0000 0.0000 1762.4311 -7535.7158 295.3857 -9298.1469 -7550.6262 300.4323 503.6699 553.1132 30466.2579 -42.2647 24.7049
ENERGY: 1200000 4.6101 8.9607 4.7528 0.0000 -10746.9206 1383.5259 0.0000 0.0000 1797.1203 -7547.9508 301.1997 -9345.0711 -7562.2120 299.8603 -366.5053 -356.3760 30220.6140 -48.7218 7.9917
ENERGY: 1500000 2.7384 8.6054 4.3848 0.0000 -10712.7253 1372.8938 0.0000 0.0000 1748.9693 -7575.1336 293.1295 -9324.1028 -7569.5498 299.2860 -794.6455 -749.8969 30893.1634 -95.1282 -39.7104
TCL: Running FEP window   8: Lambda1 0.35   Lambda2 0.39999999999999997 [dLambda 0.04999999999999999]
TCL: Setting parameter firsttimestep to 0
TCL: Setting parameter alchLambda to 0.35
Info: NONBONDED TABLE R-SQUARED SPACING: 0.0625
Info: NONBONDED TABLE SIZE: 705 POINTS
TCL: Setting parameter alchLambda2 to 0.39999999999999997
Info: NONBONDED TABLE R-SQUARED SPACING: 0.0625
Info: NONBONDED TABLE SIZE: 705 POINTS
TCL: Running for 1500000 steps
ETITLE: TS BOND ANGLE DIHED IMPRP ELECT VDW BOUNDARY MISC KINETIC TOTAL TEMP POTENTIAL TOTALAVG TEMPAVG PRESSURE GPRESSURE VOLUME PRESSAVG GPRESSAVG
ENERGY: 0 2.7384 8.6054 4.3848 0.0000 -10712.7260 1372.6198 0.0000 0.0000 1748.0989 -7576.2786 292.9836 -9324.3775 -7576.2786 292.9836 -822.7059 -742.3331 30893.1634 -822.7059 -742.3331
ENERGY: 300000 0.9542 7.5938 5.6224 0.0000 -10642.4199 1290.3545 0.0000 0.0000 1785.1257 -7552.7692 299.1894 -9337.8949 -7570.1227 297.8032 -1352.4665 -1280.0940 31157.8859 -588.9672 -535.2547
ENERGY: 600000 1.9686 22.6985 7.1558 0.0000 -10866.9498 1531.4911 0.0000 0.0000 1803.1991 -7500.4367 302.2185 -9303.6358 -7558.3158 298.3882 836.2567 870.3944 30465.6753 -183.1058 -131.2680
ENERGY: 900000 3.2691 16.7565 8.0373 0.0000 -10645.0263 1375.6953 0.0000 0.0000 1812.6964 -7428.5717 303.8103 -9241.2681 -7555.0895 298.3875 -390.5262 -341.9898 31295.7920 -192.5542 -140.6983
ENERGY: 1200000 2.7675 12.8271 4.3185 0.0000 -10892.1704 1497.6699 0.0000 0.0000 1820.4893 -7554.0981 305.1164 -9374.5874 -7563.4121 299.6219 221.7709 301.4456 30658.6615 -41.7915 15.6927
ENERGY: 1500000 3.8189 14.6184 5.0967 0.0000 -10772.1688 1416.8053 0.0000 0.0000 1874.4765 -7457.3531 314.1647 -9331.8296 -7553.9339 300.5028 -596.0713 -535.4218 30807.9250 -41.9847 15.6743
TCL: Running FEP window   9: Lambda1 0.39999999999999997 Lambda2 0.44999999999999996 [dLambda 0.04999999999999999]
TCL: Setting parameter firsttimestep to 0
TCL: Setting parameter alchLambda to 0.39999999999999997
Info: NONBONDED TABLE R-SQUARED SPACING: 0.0625
Info: NONBONDED TABLE SIZE: 705 POINTS
TCL: Setting parameter alchLambda2 to 0.44999999999999996
Info: NONBONDED TABLE R-SQUARED SPACING: 0.0625
Info: NONBONDED TABLE SIZE: 705 POINTS
TCL: Running for 1500000 steps
ETITLE: TS BOND ANGLE DIHED IMPRP ELECT VDW BOUNDARY MISC KINETIC TOTAL TEMP POTENTIAL TOTALAVG TEMPAVG PRESSURE GPRESSURE VOLUME PRESSAVG GPRESSAVG
ENERGY: 0 3.8189 14.6184 5.0967 0.0000 -10772.1703 1417.1861 0.0000 0.0000 1873.5855 -7457.8647 314.0154 -9331.4502 -7457.8647 314.0154 -621.3216 -524.5653 30807.9250 -621.3216 -524.5653
ENERGY: 300000 4.0123 16.7150 6.0606 0.0000 -10782.9534 1416.3358 0.0000 0.0000 1797.8874 -7541.9423 301.3283 -9339.8297 -7515.7096 307.1134 -306.9274 -223.7705 30590.8125 -12.9797 75.0802
ENERGY: 600000 2.0457 9.6633 5.3930 0.0000 -10828.2668 1504.5779 0.0000 0.0000 1791.0670 -7515.5200 300.1851 -9306.5869 -7518.1749 305.7638 684.7555 733.0620 30414.5267 81.5158 156.9549
ENERGY: 900000 0.9579 13.3508 7.1292 0.0000 -10653.0129 1332.0082 0.0000 0.0000 1727.5599 -7572.0070 289.5413 -9299.5669 -7534.9525 303.8523 -950.1492 -889.3398 30933.0110 -102.1731 -34.9908
ENERGY: 1200000 1.6451 13.2862 5.4391 0.0000 -10864.2568 1442.9443 0.0000 0.0000 1807.9592 -7592.9829 303.0163 -9400.9421 -7541.9279 302.4822 0.0489 59.9077 30329.6876 -202.3462 -133.2460
ENERGY: 1500000 4.3534 9.3993 4.7235 0.0000 -10850.3747 1483.3943 0.0000 0.0000 1833.9732 -7514.5309 307.3763 -9348.5041 -7545.8714 302.0809 133.4970 239.4964 30555.3751 -206.8544 -137.0595
TCL: Running FEP window  10: Lambda1 0.44999999999999996 Lambda2 0.49999999999999994 [dLambda 0.04999999999999999]
TCL: Setting parameter firsttimestep to 0
TCL: Setting parameter alchLambda to 0.44999999999999996
Info: NONBONDED TABLE R-SQUARED SPACING: 0.0625
Info: NONBONDED TABLE SIZE: 705 POINTS
TCL: Setting parameter alchLambda2 to 0.49999999999999994
Info: NONBONDED TABLE R-SQUARED SPACING: 0.0625
Info: NONBONDED TABLE SIZE: 705 POINTS
TCL: Running for 1500000 steps
ETITLE: TS BOND ANGLE DIHED IMPRP ELECT VDW BOUNDARY MISC KINETIC TOTAL TEMP POTENTIAL TOTALAVG TEMPAVG PRESSURE GPRESSURE VOLUME PRESSAVG GPRESSAVG
ENERGY: 0 4.3534 9.3993 4.7235 0.0000 -10850.3740 1483.0649 0.0000 0.0000 1833.0857 -7515.7471 307.2275 -9348.8328 -7515.7471 307.2275 157.0184 244.0092 30555.3751 157.0184 244.0092
ENERGY: 300000 3.8629 7.7650 6.3427 0.0000 -10782.3107 1419.9644 0.0000 0.0000 1788.2206 -7556.1551 299.7081 -9344.3757 -7542.1421 300.3925 -524.0381 -435.3035 31006.1171 -515.7807 -430.9023
ENERGY: 600000 4.2290 11.3568 5.9773 0.0000 -10845.2075 1484.7142 0.0000 0.0000 1732.6359 -7606.2942 290.3920 -9338.9301 -7574.9315 298.3426 -34.5184 23.1346 30979.8031 -316.5007 -241.7093
ENERGY: 900000 1.4767 13.3755 6.8246 0.0000 -10924.0115 1520.6141 0.0000 0.0000 1774.0678 -7607.6528 297.3361 -9381.7206 -7561.9908 299.5144 502.7279 548.1394 30497.5325 -123.7201 -50.7225
ENERGY: 1200000 2.0555 12.5910 5.1160 0.0000 -10761.3175 1390.0586 0.0000 0.0000 1775.0131 -7576.4835 297.4945 -9351.4966 -7552.1372 301.1958 -665.8473 -612.7236 31048.4765 -110.1861 -43.9851
ENERGY: 1500000 2.6859 8.9303 4.9748 0.0000 -10761.3456 1449.2057 0.0000 0.0000 1786.1063 -7509.4427 299.3537 -9295.5490 -7561.3095 300.4541 -54.4504 -10.7730 31249.7347 -73.6692 -11.6737
TCL: Running FEP window  11: Lambda1 0.49999999999999994 Lambda2 0.5499999999999999 [dLambda 0.04999999999999999]
TCL: Setting parameter firsttimestep to 0
TCL: Setting parameter alchLambda to 0.49999999999999994
Info: NONBONDED TABLE R-SQUARED SPACING: 0.0625
Info: NONBONDED TABLE SIZE: 705 POINTS
TCL: Setting parameter alchLambda2 to 0.5499999999999999
Info: NONBONDED TABLE R-SQUARED SPACING: 0.0625
Info: NONBONDED TABLE SIZE: 705 POINTS
TCL: Running for 1500000 steps
ETITLE: TS BOND ANGLE DIHED IMPRP ELECT VDW BOUNDARY MISC KINETIC TOTAL TEMP POTENTIAL TOTALAVG TEMPAVG PRESSURE GPRESSURE VOLUME PRESSAVG GPRESSAVG
ENERGY: 0 2.6859 8.9303 4.9748 0.0000 -10761.3452 1449.1501 0.0000 0.0000 1785.2195 -7510.3847 299.2051 -9295.6042 -7510.3847 299.2051 -73.0856 0.1678 31249.7347 -73.0856 0.1678
ENERGY: 300000 1.0732 17.0465 6.0888 0.0000 -10856.3497 1476.8853 0.0000 0.0000 1748.4620 -7606.7940 293.0445 -9355.2560 -7537.2130 298.5525 -118.6414 -91.7446 31137.4558 -249.0049 -208.0719
ENERGY: 600000 3.0660 10.9467 4.0977 0.0000 -10789.1874 1419.3885 0.0000 0.0000 1784.9013 -7566.7872 299.1518 -9351.6885 -7540.1084 299.7711 -219.5052 -144.8953 30607.6599 -202.9984 -155.7390
ENERGY: 900000 4.0723 10.5013 6.7605 0.0000 -10864.7196 1471.9012 0.0000 0.0000 1835.8342 -7535.6502 307.6882 -9371.4844 -7547.1761 299.6794 89.6737 96.8405 30692.3918 -138.3831 -88.4439
ENERGY: 1200000 1.3910 7.4036 4.6702 0.0000 -10752.8377 1416.5376 0.0000 0.0000 1806.0780 -7516.7572 302.7010 -9322.8352 -7533.1863 301.2129 -249.2810 -111.2486 30781.8994 -156.3272 -96.4981
ENERGY: 1500000 2.8473 11.0059 8.2533 0.0000 -10890.4044 1474.7355 0.0000 0.0000 1782.8154 -7610.7470 298.8022 -9393.5624 -7550.7404 299.7916 211.8581 356.6833 30479.8833 -138.4244 -69.1600
TCL: Running FEP window  12: Lambda1 0.5499999999999999 Lambda2 0.6    [dLambda 0.050000000000000044]
TCL: Setting parameter firsttimestep to 0
TCL: Setting parameter alchLambda to 0.5499999999999999
Info: NONBONDED TABLE R-SQUARED SPACING: 0.0625
Info: NONBONDED TABLE SIZE: 705 POINTS
TCL: Setting parameter alchLambda2 to 0.6
Info: NONBONDED TABLE R-SQUARED SPACING: 0.0625
Info: NONBONDED TABLE SIZE: 705 POINTS
TCL: Running for 1500000 steps
ETITLE: TS BOND ANGLE DIHED IMPRP ELECT VDW BOUNDARY MISC KINETIC TOTAL TEMP POTENTIAL TOTALAVG TEMPAVG PRESSURE GPRESSURE VOLUME PRESSAVG GPRESSAVG
ENERGY: 0 2.8473 11.0059 8.2533 0.0000 -10890.4834 1475.2794 0.0000 0.0000 1781.9068 -7611.1907 298.6499 -9393.0975 -7611.1907 298.6499 302.4811 373.1704 30479.8833 302.4811 373.1704
ENERGY: 300000 2.5444 7.4978 7.3009 0.0000 -10742.4356 1394.6896 0.0000 0.0000 1859.6644 -7470.7386 311.6822 -9330.4030 -7565.6801 301.1761 -446.2038 -375.6858 30867.7977 -98.4321 -27.5751
ENERGY: 600000 3.3180 8.4243 4.9145 0.0000 -10839.7286 1459.7960 0.0000 0.0000 1785.7638 -7577.5120 299.2963 -9363.2758 -7566.0795 300.7331 -46.8496 16.2131 30738.6130 -197.5852 -126.1918
ENERGY: 900000 1.8217 12.6614 5.6029 0.0000 -10802.9248 1403.7998 0.0000 0.0000 1832.6033 -7546.4357 307.1467 -9379.0389 -7570.0022 298.9725 -108.9100 -43.2496 30088.8991 -244.8837 -171.4548
ENERGY: 1200000 4.7339 10.6304 3.9401 0.0000 -10848.6897 1462.0844 0.0000 0.0000 1754.8539 -7612.4470 294.1158 -9367.3009 -7572.4379 298.3896 -116.9190 -54.1761 31128.7676 -177.9798 -104.9794
ENERGY: 1500000 5.9648 10.4851 6.3074 0.0000 -10808.0718 1448.7950 0.0000 0.0000 1741.6203 -7594.8991 291.8978 -9336.5194 -7573.5439 297.8460 -186.3193 -116.5466 30578.7072 -226.8685 -163.0111
TCL: Running FEP window  13: Lambda1 0.6    Lambda2 0.65   [dLambda 0.050000000000000044]
TCL: Setting parameter firsttimestep to 0
TCL: Setting parameter alchLambda to 0.6
Info: NONBONDED TABLE R-SQUARED SPACING: 0.0625
Info: NONBONDED TABLE SIZE: 705 POINTS
TCL: Setting parameter alchLambda2 to 0.65
Info: NONBONDED TABLE R-SQUARED SPACING: 0.0625
Info: NONBONDED TABLE SIZE: 705 POINTS
TCL: Running for 1500000 steps
ETITLE: TS BOND ANGLE DIHED IMPRP ELECT VDW BOUNDARY MISC KINETIC TOTAL TEMP POTENTIAL TOTALAVG TEMPAVG PRESSURE GPRESSURE VOLUME PRESSAVG GPRESSAVG
ENERGY: 0 5.9649 10.4851 6.3074 0.0000 -10808.2851 1448.8445 0.0000 0.0000 1740.7498 -7595.9335 291.7519 -9336.6833 -7595.9335 291.7519 -202.9834 -105.9928 30578.7072 -202.9834 -105.9928
ENERGY: 300000 3.7622 12.3121 7.3502 0.0000 -10938.6859 1500.8177 0.0000 0.0000 1819.3302 -7595.1134 304.9221 -9414.4436 -7545.8813 300.1460 282.3223 365.7350 30472.1926 123.3070 197.5450
ENERGY: 600000 2.6485 11.9693 7.5803 0.0000 -10749.8635 1371.1291 0.0000 0.0000 1775.5632 -7580.9731 297.5867 -9356.5364 -7567.3960 300.2673 -381.1331 -348.7854 30401.6300 -101.7911 -33.3689
ENERGY: 900000 2.6137 12.2816 5.9904 0.0000 -10799.8806 1476.5583 0.0000 0.0000 1814.9983 -7487.4382 304.1961 -9302.4365 -7557.4466 300.6536 95.1590 201.6218 31177.9610 -32.4258 33.7516
ENERGY: 1200000 1.1032 10.5844 4.2359 0.0000 -10764.5206 1435.7472 0.0000 0.0000 1789.8114 -7523.0385 299.9747 -9312.8499 -7543.5638 301.5793 148.8929 155.8710 30631.3733 -52.9007 7.6503
ENERGY: 1500000 3.3138 8.3317 4.4138 0.0000 -10859.2049 1453.0651 0.0000 0.0000 1821.6579 -7568.4226 305.3122 -9390.0805 -7548.2935 302.0269 -166.8654 -95.6707 30875.5926 -66.4580 -4.8921
TCL: Running FEP window  14: Lambda1 0.65   Lambda2 0.7000000000000001 [dLambda 0.050000000000000044]
TCL: Setting parameter firsttimestep to 0
TCL: Setting parameter alchLambda to 0.65
Info: NONBONDED TABLE R-SQUARED SPACING: 0.0625
Info: NONBONDED TABLE SIZE: 705 POINTS
TCL: Setting parameter alchLambda2 to 0.7000000000000001
Info: NONBONDED TABLE R-SQUARED SPACING: 0.0625
Info: NONBONDED TABLE SIZE: 705 POINTS
TCL: Running for 1500000 steps
ETITLE: TS BOND ANGLE DIHED IMPRP ELECT VDW BOUNDARY MISC KINETIC TOTAL TEMP POTENTIAL TOTALAVG TEMPAVG PRESSURE GPRESSURE VOLUME PRESSAVG GPRESSAVG
ENERGY: 0 3.3138 8.3317 4.4138 0.0000 -10859.8603 1452.6045 0.0000 0.0000 1820.7633 -7570.4333 305.1623 -9391.1965 -7570.4333 305.1623 -177.4612 -92.7278 30875.5926 -177.4612 -92.7278
ENERGY: 300000 1.2769 13.8108 3.9240 0.0000 -10840.4158 1484.2477 0.0000 0.0000 1775.5300 -7561.6263 297.5811 -9337.1563 -7603.1291 297.7000 136.3087 222.4896 30764.5959 -25.0155 55.6875
ENERGY: 600000 3.4181 9.5252 5.7915 0.0000 -10698.7176 1358.6606 0.0000 0.0000 1728.0893 -7593.2329 289.6300 -9321.3222 -7592.6714 297.1558 -575.3005 -588.5318 30564.5349 3.2153 54.7560
ENERGY: 900000 2.3652 11.8525 10.1231 0.0000 -10986.4815 1631.6654 0.0000 0.0000 1830.3737 -7500.1017 306.7730 -9330.4754 -7580.1718 297.4903 1432.9170 1479.3099 30808.1307 222.3611 266.7662
ENERGY: 1200000 1.2831 13.1167 6.0078 0.0000 -10931.3416 1539.6208 0.0000 0.0000 1806.3096 -7565.0035 302.7398 -9371.3131 -7572.0750 298.8997 577.7695 644.9476 30834.8377 196.0183 249.2924
ENERGY: 1500000 3.6879 9.1930 6.8483 0.0000 -10797.6987 1423.0503 0.0000 0.0000 1790.9569 -7563.9623 300.1667 -9354.9192 -7576.2105 299.6124 -350.7510 -297.7945 30829.3213 128.9430 179.5536
TCL: Running FEP window  15: Lambda1 0.7000000000000001 Lambda2 0.7500000000000001 [dLambda 0.050000000000000044]
TCL: Setting parameter firsttimestep to 0
TCL: Setting parameter alchLambda to 0.7000000000000001
Info: NONBONDED TABLE R-SQUARED SPACING: 0.0625
Info: NONBONDED TABLE SIZE: 705 POINTS
TCL: Setting parameter alchLambda2 to 0.7500000000000001
Info: NONBONDED TABLE R-SQUARED SPACING: 0.0625
Info: NONBONDED TABLE SIZE: 705 POINTS
TCL: Running for 1500000 steps
ETITLE: TS BOND ANGLE DIHED IMPRP ELECT VDW BOUNDARY MISC KINETIC TOTAL TEMP POTENTIAL TOTALAVG TEMPAVG PRESSURE GPRESSURE VOLUME PRESSAVG GPRESSAVG
ENERGY: 0 3.6879 9.1930 6.8483 0.0000 -10799.5894 1423.7650 0.0000 0.0000 1790.0513 -7566.0439 300.0149 -9356.0952 -7566.0439 300.0149 -354.8811 -278.9171 30829.3213 -354.8811 -278.9171
ENERGY: 300000 1.5567 11.1884 6.0820 0.0000 -10834.4627 1455.0622 0.0000 0.0000 1822.4096 -7538.1638 305.4382 -9360.5734 -7514.3360 302.3727 190.9276 262.4790 30668.3266 -258.8976 -182.6680
ENERGY: 600000 1.4347 14.9770 7.6538 0.0000 -10796.9863 1439.4161 0.0000 0.0000 1826.3032 -7507.2014 306.0908 -9333.5046 -7519.3227 302.8688 -115.2070 -34.3425 31056.1560 -312.4989 -238.0823
ENERGY: 900000 2.9658 8.7901 4.5688 0.0000 -10855.5005 1438.5188 0.0000 0.0000 1832.6518 -7568.0052 307.1548 -9400.6570 -7524.3323 302.9580 -306.3823 -232.4833 30698.9983 -314.7790 -239.7104
ENERGY: 1200000 2.1371 10.7323 7.9278 0.0000 -10774.4018 1415.3902 0.0000 0.0000 1756.8968 -7581.3175 294.4582 -9338.2143 -7537.9533 301.3129 -495.8819 -382.8762 30978.5267 -332.6675 -253.2827
ENERGY: 1500000 3.1484 11.1090 7.3902 0.0000 -10939.6279 1532.5156 0.0000 0.0000 1801.0552 -7584.4096 301.8592 -9385.4648 -7552.9037 300.9973 288.8902 310.1914 31074.2400 -385.8467 -305.8293
TCL: Running FEP window  16: Lambda1 0.7500000000000001 Lambda2 0.8000000000000002 [dLambda 0.050000000000000044]
TCL: Setting parameter firsttimestep to 0
TCL: Setting parameter alchLambda to 0.7500000000000001
Info: NONBONDED TABLE R-SQUARED SPACING: 0.0625
Info: NONBONDED TABLE SIZE: 705 POINTS
TCL: Setting parameter alchLambda2 to 0.8000000000000002
Info: NONBONDED TABLE R-SQUARED SPACING: 0.0625
Info: NONBONDED TABLE SIZE: 705 POINTS
TCL: Running for 1500000 steps
ETITLE: TS BOND ANGLE DIHED IMPRP ELECT VDW BOUNDARY MISC KINETIC TOTAL TEMP POTENTIAL TOTALAVG TEMPAVG PRESSURE GPRESSURE VOLUME PRESSAVG GPRESSAVG
ENERGY: 0 3.1484 11.1090 7.3902 0.0000 -10939.7960 1532.7470 0.0000 0.0000 1800.1565 -7585.2449 301.7086 -9385.4014 -7585.2449 301.7086 242.4990 328.0276 31074.2400 242.4990 328.0276
ENERGY: 300000 1.7440 11.7656 7.1652 0.0000 -10795.1619 1439.6116 0.0000 0.0000 1751.5187 -7583.3568 293.5568 -9334.8755 -7526.5561 301.3264 -288.7888 -237.9895 31123.1362 -97.6230 -18.9390
ENERGY: 600000 2.3393 9.8246 5.2787 0.0000 -10905.1586 1458.3572 0.0000 0.0000 1808.8394 -7620.5193 303.1638 -9429.3587 -7545.1133 301.0847 -24.0818 97.4247 30321.5847 -17.0641 74.4018
ENERGY: 900000 1.4576 15.5255 6.8209 0.0000 -10838.7795 1467.8811 0.0000 0.0000 1781.2944 -7565.8000 298.5472 -9347.0944 -7541.0447 300.8966 143.8541 203.6006 30795.2609 3.7357 88.5417
ENERGY: 1200000 2.6025 10.3105 7.8610 0.0000 -10693.6631 1403.9063 0.0000 0.0000 1801.8633 -7467.1195 301.9946 -9268.9827 -7546.5796 300.6859 -204.7397 -186.6567 31069.6800 26.8941 104.8606
ENERGY: 1500000 2.7171 7.9740 4.3766 0.0000 -10919.9918 1507.2997 0.0000 0.0000 1808.5958 -7589.0287 303.1230 -9397.6244 -7557.3802 300.2806 626.2972 623.1198 30369.3814 17.1953 95.4008
TCL: Running FEP window  17: Lambda1 0.8000000000000002 Lambda2 0.8500000000000002 [dLambda 0.050000000000000044]
TCL: Setting parameter firsttimestep to 0
TCL: Setting parameter alchLambda to 0.8000000000000002
Info: NONBONDED TABLE R-SQUARED SPACING: 0.0625
Info: NONBONDED TABLE SIZE: 705 POINTS
TCL: Setting parameter alchLambda2 to 0.8500000000000002
Info: NONBONDED TABLE R-SQUARED SPACING: 0.0625
Info: NONBONDED TABLE SIZE: 705 POINTS
TCL: Running for 1500000 steps
ETITLE: TS BOND ANGLE DIHED IMPRP ELECT VDW BOUNDARY MISC KINETIC TOTAL TEMP POTENTIAL TOTALAVG TEMPAVG PRESSURE GPRESSURE VOLUME PRESSAVG GPRESSAVG
ENERGY: 0 2.7171 7.9740 4.3766 0.0000 -10920.6473 1507.1318 0.0000 0.0000 1807.7021 -7590.7457 302.9732 -9398.4478 -7590.7457 302.9732 545.8495 632.9758 30369.3814 545.8495 632.9758
ENERGY: 300000 1.0843 11.2706 6.8263 0.0000 -10784.3846 1421.7124 0.0000 0.0000 1797.3363 -7546.1547 301.2359 -9343.4910 -7597.4621 296.8113 -293.4961 -192.6042 30767.8175 -322.1331 -242.6591
ENERGY: 600000 1.9338 12.8611 4.5925 0.0000 -10718.7674 1369.2491 0.0000 0.0000 1788.3474 -7541.7835 299.7293 -9330.1309 -7561.3949 299.0805 -967.5512 -860.8359 31287.6324 -479.5900 -399.0493
ENERGY: 900000 0.8959 8.6128 5.4911 0.0000 -10822.7620 1461.1217 0.0000 0.0000 1754.5021 -7592.1385 294.0568 -9346.6406 -7572.6005 297.7550 -27.5325 59.2715 30992.2223 -261.6142 -187.8656
ENERGY: 1200000 1.9031 17.8806 6.3205 0.0000 -10729.6224 1407.0328 0.0000 0.0000 1761.9649 -7534.5205 295.3076 -9296.4854 -7575.0967 297.2909 -344.9682 -281.9595 31411.2839 -237.7067 -166.3407
ENERGY: 1500000 3.1031 13.0049 5.0640 0.0000 -10764.6328 1425.3756 0.0000 0.0000 1774.1395 -7543.9457 297.3481 -9318.0852 -7566.5770 297.7353 -214.2979 -217.8277 31211.1418 -204.9410 -135.7353
TCL: Running FEP window  18: Lambda1 0.8500000000000002 Lambda2 0.9000000000000002 [dLambda 0.050000000000000044]
TCL: Setting parameter firsttimestep to 0
TCL: Setting parameter alchLambda to 0.8500000000000002
Info: NONBONDED TABLE R-SQUARED SPACING: 0.0625
Info: NONBONDED TABLE SIZE: 705 POINTS
TCL: Setting parameter alchLambda2 to 0.9000000000000002
Info: NONBONDED TABLE R-SQUARED SPACING: 0.0625
Info: NONBONDED TABLE SIZE: 705 POINTS
TCL: Running for 1500000 steps
ETITLE: TS BOND ANGLE DIHED IMPRP ELECT VDW BOUNDARY MISC KINETIC TOTAL TEMP POTENTIAL TOTALAVG TEMPAVG PRESSURE GPRESSURE VOLUME PRESSAVG GPRESSAVG
ENERGY: 0 3.1031 13.0049 5.0640 0.0000 -10766.9658 1427.1726 0.0000 0.0000 1773.1953 -7545.4259 297.1898 -9318.6212 -7545.4259 297.1898 -280.8503 -191.2373 31211.1418 -280.8503 -191.2373
ENERGY: 300000 4.1225 11.8662 6.1102 0.0000 -10709.8184 1448.1676 0.0000 0.0000 1728.8586 -7510.6933 289.7589 -9239.5519 -7542.0876 296.9635 101.6412 71.6593 31356.6924 204.6158 219.6272
ENERGY: 600000 4.0063 10.8962 6.2785 0.0000 -10823.8142 1497.1875 0.0000 0.0000 1731.8471 -7573.5985 290.2598 -9305.4456 -7554.9448 296.8037 491.9262 481.9755 30931.5990 -55.0268 -29.9952
ENERGY: 900000 1.5706 15.1250 4.6725 0.0000 -10805.2127 1407.5359 0.0000 0.0000 1834.2277 -7542.0811 307.4189 -9376.3088 -7547.9149 298.4198 -542.4861 -461.1412 31090.1901 -75.0616 -49.1942
ENERGY: 1200000 6.3610 9.2751 5.8303 0.0000 -10821.9696 1461.6320 0.0000 0.0000 1795.0951 -7543.7760 300.8603 -9338.8711 -7550.8759 298.9722 8.5352 131.4341 30943.0431 11.1327 50.1918
ENERGY: 1500000 1.6205 16.8232 6.3637 0.0000 -10798.4363 1411.8515 0.0000 0.0000 1795.8127 -7565.9647 300.9805 -9361.7774 -7548.5775 299.6538 -342.8642 -287.2730 30898.7163 -5.3880 32.0754
TCL: Running FEP window  19: Lambda1 0.9000000000000002 Lambda2 0.9500000000000003 [dLambda 0.050000000000000044]
TCL: Setting parameter firsttimestep to 0
TCL: Setting parameter alchLambda to 0.9000000000000002
Info: NONBONDED TABLE R-SQUARED SPACING: 0.0625
Info: NONBONDED TABLE SIZE: 705 POINTS
TCL: Setting parameter alchLambda2 to 0.9500000000000003
Info: NONBONDED TABLE R-SQUARED SPACING: 0.0625
Info: NONBONDED TABLE SIZE: 705 POINTS
TCL: Running for 1500000 steps
ETITLE: TS BOND ANGLE DIHED IMPRP ELECT VDW BOUNDARY MISC KINETIC TOTAL TEMP POTENTIAL TOTALAVG TEMPAVG PRESSURE GPRESSURE VOLUME PRESSAVG GPRESSAVG
ENERGY: 0 1.6205 16.8232 6.3637 0.0000 -10801.0771 1414.6365 0.0000 0.0000 1794.9780 -7566.6551 300.8406 -9361.6331 -7566.6551 300.8406 -339.6091 -248.7829 30898.7163 -339.6091 -248.7829
ENERGY: 300000 1.5172 13.7375 7.2627 0.0000 -10786.3863 1427.5700 0.0000 0.0000 1753.0878 -7583.2110 293.8198 -9336.2988 -7572.1410 300.1781 -181.6969 -114.6918 30756.2588 121.1706 205.5735
ENERGY: 600000 0.9185 9.6116 6.5292 0.0000 -10796.4421 1377.2126 0.0000 0.0000 1801.0525 -7601.1176 301.8587 -9402.1701 -7584.6570 300.6227 -471.7804 -395.8511 30509.3895 -74.3700 2.0606
ENERGY: 900000 2.0589 8.1534 5.2299 0.0000 -10963.8942 1487.0019 0.0000 0.0000 1797.1529 -7664.2972 301.2052 -9461.4501 -7609.9477 299.0138 195.8359 302.5957 30284.3905 -21.6732 62.5031
ENERGY: 1200000 3.1723 13.3194 7.9598 0.0000 -10775.8110 1438.6141 0.0000 0.0000 1741.3407 -7571.4047 291.8510 -9312.7454 -7606.4616 297.2396 -280.8868 -192.4036 31390.7537 1.7797 82.4590
ENERGY: 1500000 0.9003 9.8313 6.7795 0.0000 -10805.7525 1414.3100 0.0000 0.0000 1792.4376 -7581.4938 300.4149 -9373.9313 -7597.0562 298.0965 -436.9353 -389.2380 31175.5790 -54.3462 26.4474
TCL: Running FEP window  20: Lambda1 0.9500000000000003 Lambda2 1.0    [dLambda 0.04999999999999971]
TCL: Setting parameter firsttimestep to 0
TCL: Setting parameter alchLambda to 0.9500000000000003
Info: NONBONDED TABLE R-SQUARED SPACING: 0.0625
Info: NONBONDED TABLE SIZE: 705 POINTS
TCL: Setting parameter alchLambda2 to 1.0
Info: NONBONDED TABLE R-SQUARED SPACING: 0.0625
Info: NONBONDED TABLE SIZE: 705 POINTS
TCL: Running for 1500000 steps
ETITLE: TS BOND ANGLE DIHED IMPRP ELECT VDW BOUNDARY MISC KINETIC TOTAL TEMP POTENTIAL TOTALAVG TEMPAVG PRESSURE GPRESSURE VOLUME PRESSAVG GPRESSAVG
ENERGY: 0 0.9003 9.8313 6.7795 0.0000 -10807.8001 1417.1394 0.0000 0.0000 1791.5402 -7581.6094 300.2645 -9373.1496 -7581.6094 300.2645 -435.9304 -346.6558 31175.5790 -435.9304 -346.6558
ENERGY: 300000 1.4518 11.3653 5.1139 0.0000 -10944.1462 1525.8357 0.0000 0.0000 1819.1797 -7581.1998 304.8969 -9400.3795 -7563.8668 304.5214 327.5979 468.1013 30934.2150 32.0858 122.3895
ENERGY: 600000 3.3023 13.9744 6.7881 0.0000 -10619.9499 1317.5493 0.0000 0.0000 1817.0199 -7461.3159 304.5349 -9278.3358 -7546.8127 302.6398 -768.1760 -737.2327 31113.3497 -137.7346 -58.3568
ENERGY: 900000 2.4943 10.0902 6.4399 0.0000 -10856.7495 1471.5497 0.0000 0.0000 1828.0239 -7538.1515 306.3792 -9366.1754 -7552.1181 301.9628 -95.3768 -71.7395 31332.4448 -65.6083 -3.5274
ENERGY: 1200000 1.3260 9.5010 5.3972 0.0000 -10799.8176 1462.6899 0.0000 0.0000 1840.2905 -7480.6130 308.4351 -9320.9035 -7551.8647 300.9458 19.5133 80.8102 31480.9078 -0.8355 56.7913
ENERGY: 1500000 1.5989 9.1181 5.3475 0.0000 -10792.3665 1465.0305 0.0000 0.0000 1848.5623 -7462.7092 309.8214 -9311.2715 -7542.6537 301.4153 265.9044 324.1050 30991.8498 81.5942 137.9988
TCL: Exiting due to exit command.
