Info: SIMULATION PARAMETERS:
Info: TIMESTEP               2
Info: NUMBER OF STEPS        0
Info: STEPS PER CYCLE        10
Info: PERIODIC CELL BASIS 1  30.9165 0 0
Info: PERIODIC CELL BASIS 2  0 30.6603 0
Info: PERIODIC CELL BASIS 3  0 0 31.9884
Info: PERIODIC CELL CENTER   0 0 0
Info: WRAPPING WATERS AROUND PERIODIC BOUNDARIES ON OUTPUT.
Info: WRAPPING ALL CLUSTERS AROUND PERIODIC BOUNDARIES ON OUTPUT.
Info: FIRST LDB TIMESTEP     50
Info: LAST LDB TIMESTEP     -1
Info: HOM BACKGROUND SCALING 1
Info: PME BACKGROUND SCALING 1
Info: MIN ATOMS PER PATCH    40
Info: EMPTY PATCH LOAD       40 ATOMS
Info: VELOCITY FILE          mobley_8522124_equil.vel
Info: CENTER OF MASS MOVING INITIALLY? NO
Info: DIELECTRIC             1
Info: EXCLUDE                SCALED ONE-FOUR
Info: 1-4 ELECTROSTATICS SCALED BY 0.833333
Info: MODIFIED 1-4 VDW PARAMETERS WILL BE USED
Info: DCD FILENAME           mobley_8522124_prod.dcd
Info: DCD FREQUENCY          100000
Info: DCD FIRST STEP         100000
Info: DCD FILE WILL CONTAIN UNIT CELL DATA
Info: XST FILENAME           mobley_8522124_prod.xst
Info: XST FREQUENCY          100000
Info: NO VELOCITY DCD OUTPUT
Info: NO FORCE DCD OUTPUT
Info: OUTPUT FILENAME        mobley_8522124_prod
Info: BINARY OUTPUT FILES WILL BE USED
Info: RESTART FILENAME       mobley_8522124_prod.restart
Info: RESTART FREQUENCY      100000
Info: BINARY RESTART FILES WILL BE USED
Info: CUTOFF                 9
Info: PAIRLIST DISTANCE      11
Info: PAIRLIST SHRINK RATE   0.01
Info: PAIRLIST GROW RATE     0.01
Info: PAIRLIST TRIGGER       0.3
Info: PAIRLISTS PER CYCLE    2
Info: PAIRLISTS ENABLED
Info: MARGIN                 2
Info: HYDROGEN GROUP CUTOFF  2.5
Info: PATCH DIMENSION        15.5
Info: ENERGY OUTPUT STEPS    100000
Info: ENERGY EVALUATION STEPS    100000
Info: OUTPUT ENERGY PRECISION 4
Info: CROSSTERM ENERGY INCLUDED IN DIHEDRAL
Info: TIMING OUTPUT STEPS    1000000
Info: PRESSURE OUTPUT STEPS  100000
Info: ALCHEMICAL FEP ON
Info: FEP CURRENT LAMBDA VALUE     0
Info: FEP COMPARISON LAMBDA VALUE  0.05
Info: FEP INTRA-ALCHEMICAL NON-BONDED INTERACTIONS WILL BE RETAINED
Info: FEP INTRA-ALCHEMICAL BONDED INTERACTIONS WILL BE RETAINED
Info: FEP VDW SHIFTING COEFFICIENT 5
Info: FEP ELEC. ACTIVE FOR ANNIHILATED PARTICLES BETWEEN LAMBDA = 0 AND LAMBDA = 0.5
Info: FEP ELEC. ACTIVE FOR EXNIHILATED PARTICLES BETWEEN LAMBDA = 0.5 AND LAMBDA = 1
Info: FEP VDW ACTIVE FOR ANNIHILATED PARTICLES BETWEEN LAMBDA = 0 AND LAMBDA = 1
Info: FEP VDW ACTIVE FOR EXNIHILATED PARTICLES BETWEEN LAMBDA = 0 AND LAMBDA = 1
Info: FEP BOND ACTIVE FOR ANNIHILATED PARTICLES BETWEEN LAMBDA = 1 AND LAMBDA = 1
Info: FEP BOND ACTIVE FOR EXNIHILATED PARTICLES BETWEEN LAMBDA = 0 AND LAMBDA = 0
Info: LANGEVIN DYNAMICS ACTIVE
Info: LANGEVIN TEMPERATURE   300
Info: LANGEVIN USING BBK INTEGRATOR
Info: LANGEVIN DAMPING COEFFICIENT IS 1 INVERSE PS
Info: LANGEVIN DYNAMICS APPLIED TO HYDROGENS
Info: LANGEVIN PISTON PRESSURE CONTROL ACTIVE
Info:        TARGET PRESSURE IS 1.01325 BAR
Info:     OSCILLATION PERIOD IS 50 FS
Info:             DECAY TIME IS 25 FS
Info:     PISTON TEMPERATURE IS 300 K
Info:       PRESSURE CONTROL IS GROUP-BASED
Info:    INITIAL STRAIN RATE IS -0.000103938 -0.000103938 -0.000103938
Info:       CELL FLUCTUATION IS ISOTROPIC
Info: PARTICLE MESH EWALD (PME) ACTIVE
Info: PME TOLERANCE               1e-06
Info: PME EWALD COEFFICIENT       0.348832
Info: PME INTERPOLATION ORDER     4
Info: PME GRID DIMENSIONS         32 32 32
Info: PME MAXIMUM GRID SPACING    1
Info: PME CALCULATION WILL BE PERFORMED ON GPU
Info: FULL ELECTROSTATIC EVALUATION FREQUENCY      2
Info: USING VERLET I (r-RESPA) MTS SCHEME.
Info: C1 SPLITTING OF LONG RANGE ELECTROSTATICS
Info: PLACING ATOMS IN PATCHES BY HYDROGEN GROUPS
Info: RIGID BONDS TO HYDROGEN : ALL
Info:         ERROR TOLERANCE : 1e-08
Info:          MAX ITERATIONS : 100
Info: RIGID WATER USING SETTLE ALGORITHM
Info: RANDOM NUMBER SEED     1743978452
Info: USE HYDROGEN BONDS?    NO
Info: Using AMBER format force field!
Info: AMBER PARM FILE        mobley_8522124.prmtop
Info: COORDINATE PDB         mobley_8522124.pdb
Info: Exclusions will be read from PARM file!
Info: SCNB (VDW SCALING)     2
Info: USING ARITHMETIC MEAN TO COMBINE L-J SIGMA PARAMETERS
Info: BINARY COORDINATES     mobley_8522124_equil.coor
Info: SUMMARY OF PARAMETERS:
Info: 7 BONDS
Info: 7 ANGLES
Info:   7 HARMONIC
Info:   0 COSINE-BASED
Info: 7 DIHEDRAL
Info: 0 IMPROPER
Info: 0 CROSSTERM
Info: 0 VDW
Info: 21 VDW_PAIRS
Info: 0 NBTHOLE_PAIRS
Info: To read alchdata from file: mobley_8522124.pdb
Info: To read alchflag data from column: 5
Info: STRUCTURE SUMMARY:
Info: 2920 ATOMS
Info: 2919 BONDS
Info: 38 ANGLES
Info: 55 DIHEDRALS
Info: 0 IMPROPERS
Info: 0 CROSSTERMS
Info: 3006 EXCLUSIONS
Info: 2912 RIGID BONDS
Info: ALCH: 0 ATOMS TO DISAPPEAR IN FINAL STATE
Info: ALCH: 22 ATOMS TO APPEAR IN FINAL STATE
Info: 5848 DEGREES OF FREEDOM
Info: 974 HYDROGEN GROUPS
Info: 4 ATOMS IN LARGEST HYDROGEN GROUP
Info: 974 MIGRATION GROUPS
Info: 4 ATOMS IN LARGEST MIGRATION GROUP
Info: TOTAL MASS = 17513.6 amu
Info: TOTAL CHARGE = -9.99994e-05 e
Info: MASS DENSITY = 0.959126 g/cm^3
Info: ATOM DENSITY = 0.0962992 atoms/A^3
Info: ADDED 0 IMPLICIT EXCLUSIONS
Info: NONBONDED TABLE R-SQUARED SPACING: 0.0625
Info: NONBONDED TABLE SIZE: 705 POINTS
Info: REMOVING COM VELOCITY 0.0601936 -0.031401 -0.0324906
Info: Use 3D box decompostion in PME FFT.
Info: Updated CUDA force table with 4096 elements.
Info: Updated CUDA LJ table with 6 x 6 elements.
Info: Found 25 unique exclusion lists needing 80 bytes
TCL: Running for 1500000 steps
ETITLE: TS BOND ANGLE DIHED IMPRP ELECT VDW BOUNDARY MISC KINETIC TOTAL TEMP POTENTIAL TOTALAVG TEMPAVG PRESSURE GPRESSURE VOLUME PRESSAVG GPRESSAVG
ENERGY: 0 1.6620 10.8568 4.0758 0.0000 -10497.6517 1396.1076 0.0000 0.0000 1743.4574 -7341.4921 300.0505 -9084.9495 -7341.4921 300.0505 -238.7005 -139.0787 30322.1580 -238.7005 -139.0787
ENERGY: 300000 3.0541 15.9509 2.4408 0.0000 -10634.4190 1472.2787 0.0000 0.0000 1788.7121 -7351.9824 307.8389 -9140.6945 -7325.0538 303.4339 250.8491 335.0137 29577.4943 -27.9320 27.3378
ENERGY: 600000 1.3252 10.7515 1.8882 0.0000 -10413.7186 1338.9187 0.0000 0.0000 1736.0779 -7324.7572 298.7805 -9060.8351 -7334.1502 303.0238 -749.5893 -727.6910 30545.3182 -101.7645 -53.0987
ENERGY: 900000 3.7866 10.3766 3.2714 0.0000 -10594.2930 1421.4124 0.0000 0.0000 1788.6004 -7366.8456 307.8197 -9155.4460 -7348.5032 301.9537 -250.2116 -231.7488 29846.4047 -204.4467 -166.6823
ENERGY: 1200000 6.3806 12.3448 3.4116 0.0000 -10463.6275 1391.5026 0.0000 0.0000 1659.9742 -7390.0137 285.6830 -9049.9879 -7348.5893 301.1939 -149.5227 -41.5273 29832.9605 -166.0332 -127.8875
ENERGY: 1500000 3.7364 10.4147 4.2619 0.0000 -10521.0258 1403.7980 0.0000 0.0000 1701.6367 -7397.1782 292.8531 -9098.8148 -7351.2187 300.9394 -493.9457 -403.9778 30217.5388 -162.8278 -117.3632
TCL: Running FEP window   2: Lambda1 0.05   Lambda2 0.1    [dLambda 0.05  ]
TCL: Setting parameter firsttimestep to 0
TCL: Setting parameter alchLambda to 0.05
Info: NONBONDED TABLE R-SQUARED SPACING: 0.0625
Info: NONBONDED TABLE SIZE: 705 POINTS
TCL: Setting parameter alchLambda2 to 0.1
Info: NONBONDED TABLE R-SQUARED SPACING: 0.0625
Info: NONBONDED TABLE SIZE: 705 POINTS
TCL: Running for 1500000 steps
ETITLE: TS BOND ANGLE DIHED IMPRP ELECT VDW BOUNDARY MISC KINETIC TOTAL TEMP POTENTIAL TOTALAVG TEMPAVG PRESSURE GPRESSURE VOLUME PRESSAVG GPRESSAVG
ENERGY: 0 3.7364 10.4147 4.2619 0.0000 -10521.0260 1406.8968 0.0000 0.0000 1700.8227 -7394.8935 292.7130 -9095.7161 -7394.8935 292.7130 -473.8673 -393.6859 30217.5388 -473.8673 -393.6859
ENERGY: 300000 2.6925 4.6119 2.3369 0.0000 -10633.1016 1402.9414 0.0000 0.0000 1713.9070 -7506.6118 294.9649 -9220.5189 -7383.2765 300.6499 -848.0733 -727.3106 30046.3896 -444.8033 -382.8528
ENERGY: 600000 2.6090 8.6537 2.6737 0.0000 -10544.5476 1479.7266 0.0000 0.0000 1773.8552 -7277.0294 305.2820 -9050.8846 -7361.9217 301.2852 585.9225 624.1421 29803.2793 -42.4053 18.0877
ENERGY: 900000 2.4839 9.5140 1.9349 0.0000 -10475.0223 1353.2215 0.0000 0.0000 1711.1502 -7396.7178 294.4904 -9107.8680 -7365.1141 301.0769 -679.1556 -700.2011 30038.2978 -113.3722 -60.2635
ENERGY: 1200000 5.0026 9.6046 2.4905 0.0000 -10471.6064 1436.3058 0.0000 0.0000 1779.9099 -7238.2931 306.3240 -9018.2029 -7356.3074 301.4510 295.6555 335.4519 29974.2767 -129.8940 -82.4963
ENERGY: 1500000 2.0159 12.7251 3.2037 0.0000 -10562.2833 1431.4621 0.0000 0.0000 1780.3781 -7332.4984 306.4046 -9112.8765 -7363.7919 301.1926 -53.7790 -30.9122 30026.8880 -128.2485 -81.3394
TCL: Running FEP window   3: Lambda1 0.1    Lambda2 0.15000000000000002 [dLambda 0.05000000000000002]
TCL: Setting parameter firsttimestep to 0
TCL: Setting parameter alchLambda to 0.1
Info: NONBONDED TABLE R-SQUARED SPACING: 0.0625
Info: NONBONDED TABLE SIZE: 705 POINTS
TCL: Setting parameter alchLambda2 to 0.15000000000000002
Info: NONBONDED TABLE R-SQUARED SPACING: 0.0625
Info: NONBONDED TABLE SIZE: 705 POINTS
TCL: Running for 1500000 steps
ETITLE: TS BOND ANGLE DIHED IMPRP ELECT VDW BOUNDARY MISC KINETIC TOTAL TEMP POTENTIAL TOTALAVG TEMPAVG PRESSURE GPRESSURE VOLUME PRESSAVG GPRESSAVG
ENERGY: 0 2.0159 12.7251 3.2037 0.0000 -10562.2825 1432.7828 0.0000 0.0000 1779.4668 -7332.0883 306.2477 -9111.5550 -7332.0883 306.2477 -100.7952 -22.0185 30026.8880 -100.7952 -22.0185
ENERGY: 300000 2.2225 4.7464 3.4918 0.0000 -10467.1583 1378.3761 0.0000 0.0000 1784.0457 -7294.2758 307.0358 -9078.3215 -7339.9375 304.7347 -134.4271 12.7885 29410.9293 -108.3830 -40.4146
ENERGY: 600000 1.2877 6.8573 3.1966 0.0000 -10650.9534 1494.1539 0.0000 0.0000 1774.3581 -7371.0997 305.3685 -9145.4579 -7353.2111 302.4771 354.2403 327.2971 30232.9037 -102.4907 -63.4650
ENERGY: 900000 2.2637 13.5130 2.8561 0.0000 -10509.5326 1388.2683 0.0000 0.0000 1743.7893 -7358.8422 300.1076 -9102.6315 -7348.1330 301.5755 -184.4395 -177.8511 29877.7107 -120.7580 -82.2644
ENERGY: 1200000 3.7449 10.9868 1.8173 0.0000 -10482.9876 1421.8941 0.0000 0.0000 1726.5808 -7317.9637 297.1460 -9044.5445 -7355.3024 300.7432 -226.8391 -73.4744 30774.0280 -129.2100 -78.5592
ENERGY: 1500000 4.5735 14.0933 2.6940 0.0000 -10482.6789 1362.2957 0.0000 0.0000 1732.5664 -7366.4559 298.1762 -9099.0223 -7364.5113 300.2899 -684.1783 -690.7330 30149.4998 -57.9206 -6.8703
TCL: Running FEP window   4: Lambda1 0.15000000000000002 Lambda2 0.2    [dLambda 0.04999999999999999]
TCL: Setting parameter firsttimestep to 0
TCL: Setting parameter alchLambda to 0.15000000000000002
Info: NONBONDED TABLE R-SQUARED SPACING: 0.0625
Info: NONBONDED TABLE SIZE: 705 POINTS
TCL: Setting parameter alchLambda2 to 0.2
Info: NONBONDED TABLE R-SQUARED SPACING: 0.0625
Info: NONBONDED TABLE SIZE: 705 POINTS
TCL: Running for 1500000 steps
ETITLE: TS BOND ANGLE DIHED IMPRP ELECT VDW BOUNDARY MISC KINETIC TOTAL TEMP POTENTIAL TOTALAVG TEMPAVG PRESSURE GPRESSURE VOLUME PRESSAVG GPRESSAVG
ENERGY: 0 4.5735 14.0933 2.6940 0.0000 -10482.6789 1365.0201 0.0000 0.0000 1731.6851 -7364.6129 298.0245 -9096.2979 -7364.6129 298.0245 -762.5944 -681.7288 30149.4998 -762.5944 -681.7288
ENERGY: 300000 3.5526 9.4141 3.3218 0.0000 -10429.9345 1324.2860 0.0000 0.0000 1739.0783 -7350.2816 299.2969 -9089.3600 -7376.3238 301.4062 -789.1646 -752.5713 29908.6231 -249.8588 -175.0684
ENERGY: 600000 1.2039 12.7575 2.1719 0.0000 -10505.0295 1407.4799 0.0000 0.0000 1756.7674 -7324.6489 302.3412 -9081.4163 -7348.1907 303.1971 66.5016 81.9317 29779.4534 -53.1636 -5.4256
ENERGY: 900000 0.5216 10.7411 2.6096 0.0000 -10510.1777 1374.3633 0.0000 0.0000 1712.0617 -7409.8803 294.6473 -9121.9420 -7350.3163 301.3673 -342.3214 -249.6287 29744.8164 -85.3373 -33.7959
ENERGY: 1200000 6.1705 9.6727 3.2805 0.0000 -10543.5672 1412.6460 0.0000 0.0000 1750.6071 -7361.1904 301.2810 -9111.7974 -7350.3832 302.2322 16.5329 6.3226 29776.8074 -18.8707 30.8704
ENERGY: 1500000 1.5285 9.5919 2.6283 0.0000 -10474.2452 1361.7644 0.0000 0.0000 1742.8468 -7355.8854 299.9454 -9098.7322 -7350.0860 302.2149 -426.3664 -406.4352 29826.9586 -69.9955 -14.0276
TCL: Running FEP window   5: Lambda1 0.2    Lambda2 0.25   [dLambda 0.04999999999999999]
TCL: Setting parameter firsttimestep to 0
TCL: Setting parameter alchLambda to 0.2
Info: NONBONDED TABLE R-SQUARED SPACING: 0.0625
Info: NONBONDED TABLE SIZE: 705 POINTS
TCL: Setting parameter alchLambda2 to 0.25
Info: NONBONDED TABLE R-SQUARED SPACING: 0.0625
Info: NONBONDED TABLE SIZE: 705 POINTS
TCL: Running for 1500000 steps
ETITLE: TS BOND ANGLE DIHED IMPRP ELECT VDW BOUNDARY MISC KINETIC TOTAL TEMP POTENTIAL TOTALAVG TEMPAVG PRESSURE GPRESSURE VOLUME PRESSAVG GPRESSAVG
ENERGY: 0 1.5285 9.5919 2.6283 0.0000 -10474.2463 1361.8866 0.0000 0.0000 1742.0003 -7356.6108 299.7997 -9098.6110 -7356.6108 299.7997 -476.8675 -403.1826 29826.9586 -476.8675 -403.1826
ENERGY: 300000 1.9592 10.3826 3.3839 0.0000 -10548.7970 1410.6727 0.0000 0.0000 1790.8813 -7331.5174 308.2122 -9122.3987 -7359.8010 304.3407 38.2344 57.1850 29847.9294 115.4378 175.4237
ENERGY: 600000 2.3460 13.0877 4.7329 0.0000 -10388.8778 1316.4850 0.0000 0.0000 1782.9133 -7269.3130 306.8409 -9052.2262 -7339.3375 304.4913 -756.9559 -721.1332 30266.4862 113.3395 176.7288
ENERGY: 900000 4.3353 5.1576 3.4610 0.0000 -10599.3105 1448.4452 0.0000 0.0000 1759.8433 -7378.0681 302.8705 -9137.9113 -7344.9107 305.4328 250.1784 348.2750 29795.6404 44.6922 114.8251
ENERGY: 1200000 2.1802 10.5274 3.1987 0.0000 -10557.0447 1456.4002 0.0000 0.0000 1741.1608 -7343.5774 299.6553 -9084.7382 -7358.8997 302.2414 466.4532 515.3752 29680.1623 8.5968 79.3940
ENERGY: 1500000 1.8367 10.9501 4.2862 0.0000 -10424.8093 1358.3050 0.0000 0.0000 1831.7227 -7217.7085 315.2410 -9049.4313 -7348.7237 302.4886 -324.6432 -296.1462 30130.6894 17.9000 81.7872
TCL: Running FEP window   6: Lambda1 0.25   Lambda2 0.3    [dLambda 0.04999999999999999]
TCL: Setting parameter firsttimestep to 0
TCL: Setting parameter alchLambda to 0.25
Info: NONBONDED TABLE R-SQUARED SPACING: 0.0625
Info: NONBONDED TABLE SIZE: 705 POINTS
TCL: Setting parameter alchLambda2 to 0.3
Info: NONBONDED TABLE R-SQUARED SPACING: 0.0625
Info: NONBONDED TABLE SIZE: 705 POINTS
TCL: Running for 1500000 steps
ETITLE: TS BOND ANGLE DIHED IMPRP ELECT VDW BOUNDARY MISC KINETIC TOTAL TEMP POTENTIAL TOTALAVG TEMPAVG PRESSURE GPRESSURE VOLUME PRESSAVG GPRESSAVG
ENERGY: 0 1.8367 10.9501 4.2862 0.0000 -10424.8099 1361.0000 0.0000 0.0000 1830.8263 -7215.9107 315.0868 -9046.7370 -7215.9107 315.0868 -354.1414 -281.7406 30130.6894 -354.1414 -281.7406
ENERGY: 300000 3.3283 8.2450 3.7013 0.0000 -10693.4623 1476.8386 0.0000 0.0000 1738.1050 -7463.2441 299.1294 -9201.3491 -7337.2582 306.2738 129.2715 243.7036 29859.9204 -117.7722 -20.6735
ENERGY: 600000 3.4920 7.8638 2.3550 0.0000 -10748.9946 1529.3010 0.0000 0.0000 1733.9430 -7472.0397 298.4131 -9205.9827 -7371.7255 302.8368 522.9993 569.2004 29956.7832 -44.6967 35.0115
ENERGY: 900000 0.5964 7.0417 3.8204 0.0000 -10422.5471 1344.0492 0.0000 0.0000 1750.7923 -7316.2472 301.3128 -9067.0394 -7369.1699 301.0648 -483.3478 -457.2416 30185.7641 -93.5549 -30.7005
ENERGY: 1200000 2.0432 10.4160 2.7265 0.0000 -10693.0222 1459.1099 0.0000 0.0000 1684.9430 -7533.7837 289.9801 -9218.7267 -7388.6109 299.6813 -110.8489 -139.8845 30128.5657 -156.2858 -108.4341
ENERGY: 1500000 1.0457 12.6346 1.8819 0.0000 -10522.0637 1445.1658 0.0000 0.0000 1719.7268 -7341.6089 295.9664 -9061.3357 -7382.9820 298.9723 181.8642 304.8484 30080.5875 -189.5656 -128.5390
TCL: Running FEP window   7: Lambda1 0.3    Lambda2 0.35   [dLambda 0.04999999999999999]
TCL: Setting parameter firsttimestep to 0
TCL: Setting parameter alchLambda to 0.3
Info: NONBONDED TABLE R-SQUARED SPACING: 0.0625
Info: NONBONDED TABLE SIZE: 705 POINTS
TCL: Setting parameter alchLambda2 to 0.35
Info: NONBONDED TABLE R-SQUARED SPACING: 0.0625
Info: NONBONDED TABLE SIZE: 705 POINTS
TCL: Running for 1500000 steps
ETITLE: TS BOND ANGLE DIHED IMPRP ELECT VDW BOUNDARY MISC KINETIC TOTAL TEMP POTENTIAL TOTALAVG TEMPAVG PRESSURE GPRESSURE VOLUME PRESSAVG GPRESSAVG
ENERGY: 0 1.0457 12.6346 1.8819 0.0000 -10522.0640 1445.0214 0.0000 0.0000 1718.8826 -7342.5979 295.8212 -9061.4804 -7342.5979 295.8212 216.6988 310.0595 30080.5875 216.6988 310.0595
ENERGY: 300000 4.3281 7.9314 2.8660 0.0000 -10500.9944 1438.7776 0.0000 0.0000 1704.0691 -7343.0222 293.2717 -9047.0913 -7337.2250 297.1160 -8.5243 38.6261 30382.3141 209.9250 249.0455
ENERGY: 600000 2.8021 10.9469 2.7144 0.0000 -10667.3146 1490.9984 0.0000 0.0000 1768.8761 -7390.9766 304.4251 -9159.8528 -7358.6335 298.9627 425.5279 529.2504 29627.5710 196.1465 250.9723
ENERGY: 900000 0.8318 12.0438 3.5081 0.0000 -10452.2999 1309.2214 0.0000 0.0000 1720.6285 -7406.0663 296.1216 -9126.6948 -7389.1361 298.1502 -1078.2144 -956.2597 30134.3500 -51.6594 18.4685
ENERGY: 1200000 2.4524 13.2065 2.5993 0.0000 -10476.0997 1339.6063 0.0000 0.0000 1756.7768 -7361.4585 302.3428 -9118.2353 -7378.5597 298.4243 -469.6772 -413.7759 29885.5981 -120.8152 -57.9111
ENERGY: 1500000 2.8952 14.4215 4.7818 0.0000 -10557.9602 1463.8858 0.0000 0.0000 1720.5509 -7351.4249 296.1083 -9071.9758 -7381.8321 298.6386 424.9914 427.0955 30038.5931 -85.5344 -28.1853
TCL: Running FEP window   8: Lambda1 0.35   Lambda2 0.39999999999999997 [dLambda 0.04999999999999999]
TCL: Setting parameter firsttimestep to 0
TCL: Setting parameter alchLambda to 0.35
Info: NONBONDED TABLE R-SQUARED SPACING: 0.0625
Info: NONBONDED TABLE SIZE: 705 POINTS
TCL: Setting parameter alchLambda2 to 0.39999999999999997
Info: NONBONDED TABLE R-SQUARED SPACING: 0.0625
Info: NONBONDED TABLE SIZE: 705 POINTS
TCL: Running for 1500000 steps
ETITLE: TS BOND ANGLE DIHED IMPRP ELECT VDW BOUNDARY MISC KINETIC TOTAL TEMP POTENTIAL TOTALAVG TEMPAVG PRESSURE GPRESSURE VOLUME PRESSAVG GPRESSAVG
ENERGY: 0 2.8952 14.4215 4.7818 0.0000 -10557.9611 1463.5839 0.0000 0.0000 1719.6712 -7352.6075 295.9569 -9072.2786 -7352.6075 295.9569 362.1004 431.7220 30038.5931 362.1004 431.7220
ENERGY: 300000 2.0965 9.0933 4.5648 0.0000 -10654.9378 1462.9331 0.0000 0.0000 1692.6965 -7483.5537 291.3145 -9176.2502 -7376.0735 295.7835 34.3999 72.5329 29951.7824 120.0726 175.4101
ENERGY: 600000 0.5623 10.1815 2.1669 0.0000 -10570.2279 1417.2898 0.0000 0.0000 1732.7862 -7407.2412 298.2140 -9140.0274 -7365.4289 296.6632 -70.6992 48.9741 29843.5919 132.8549 196.0428
ENERGY: 900000 2.9719 11.1713 1.9089 0.0000 -10650.7132 1458.1380 0.0000 0.0000 1651.3905 -7525.1327 284.2057 -9176.5232 -7380.0279 296.1024 -247.1431 -156.2915 30195.6225 124.2223 182.7594
ENERGY: 1200000 1.1162 10.3143 3.2091 0.0000 -10553.0034 1381.6107 0.0000 0.0000 1766.3479 -7390.4053 303.9900 -9156.7532 -7383.5308 296.6943 -410.6206 -349.7142 30132.6931 71.2746 125.9384
ENERGY: 1500000 2.9495 8.7319 2.0917 0.0000 -10578.3724 1452.6642 0.0000 0.0000 1768.3137 -7343.6215 304.3283 -9111.9352 -7375.0311 298.2656 388.1906 423.1120 29694.3076 160.3379 212.7899
TCL: Running FEP window   9: Lambda1 0.39999999999999997 Lambda2 0.44999999999999996 [dLambda 0.04999999999999999]
TCL: Setting parameter firsttimestep to 0
TCL: Setting parameter alchLambda to 0.39999999999999997
Info: NONBONDED TABLE R-SQUARED SPACING: 0.0625
Info: NONBONDED TABLE SIZE: 705 POINTS
TCL: Setting parameter alchLambda2 to 0.44999999999999996
Info: NONBONDED TABLE R-SQUARED SPACING: 0.0625
Info: NONBONDED TABLE SIZE: 705 POINTS
TCL: Running for 1500000 steps
ETITLE: TS BOND ANGLE DIHED IMPRP ELECT VDW BOUNDARY MISC KINETIC TOTAL TEMP POTENTIAL TOTALAVG TEMPAVG PRESSURE GPRESSURE VOLUME PRESSAVG GPRESSAVG
ENERGY: 0 2.9495 8.7319 2.0917 0.0000 -10578.3719 1452.1037 0.0000 0.0000 1767.4404 -7345.0548 304.1780 -9112.4951 -7345.0548 304.1780 349.4141 428.9241 29694.3076 349.4141 428.9241
ENERGY: 300000 3.0791 10.4832 1.8044 0.0000 -10491.7773 1351.9751 0.0000 0.0000 1748.9153 -7375.5202 300.9898 -9124.4355 -7373.5481 302.8157 -585.1531 -566.9648 30254.7816 -283.1048 -253.0189
ENERGY: 600000 2.4177 9.2266 2.1035 0.0000 -10645.5485 1464.5382 0.0000 0.0000 1787.3964 -7379.8662 307.6124 -9167.2625 -7389.9748 301.6495 245.3983 281.7616 29827.4113 -236.3426 -198.2722
ENERGY: 900000 1.5656 11.4973 2.7532 0.0000 -10636.8982 1443.1287 0.0000 0.0000 1727.0943 -7450.8590 297.2344 -9177.9533 -7394.6824 301.4342 142.2028 186.5930 29725.1546 -171.9538 -135.6309
ENERGY: 1200000 2.5801 10.8165 2.1658 0.0000 -10557.0260 1410.3508 0.0000 0.0000 1760.4718 -7370.6412 302.9787 -9131.1129 -7390.1734 301.8930 -17.5814 97.6999 29750.0498 -36.4863 9.4764
ENERGY: 1500000 4.2264 12.7224 2.7252 0.0000 -10538.6053 1428.0932 0.0000 0.0000 1727.4915 -7363.3467 297.3028 -9090.8381 -7384.1284 301.4152 195.3716 261.4191 29810.7098 14.6008 64.0232
TCL: Running FEP window  10: Lambda1 0.44999999999999996 Lambda2 0.49999999999999994 [dLambda 0.04999999999999999]
TCL: Setting parameter firsttimestep to 0
TCL: Setting parameter alchLambda to 0.44999999999999996
Info: NONBONDED TABLE R-SQUARED SPACING: 0.0625
Info: NONBONDED TABLE SIZE: 705 POINTS
TCL: Setting parameter alchLambda2 to 0.49999999999999994
Info: NONBONDED TABLE R-SQUARED SPACING: 0.0625
Info: NONBONDED TABLE SIZE: 705 POINTS
TCL: Running for 1500000 steps
ETITLE: TS BOND ANGLE DIHED IMPRP ELECT VDW BOUNDARY MISC KINETIC TOTAL TEMP POTENTIAL TOTALAVG TEMPAVG PRESSURE GPRESSURE VOLUME PRESSAVG GPRESSAVG
ENERGY: 0 4.2264 12.7224 2.7252 0.0000 -10538.6066 1428.7896 0.0000 0.0000 1726.6172 -7363.5259 297.1523 -9090.1430 -7363.5259 297.1523 201.1601 275.5421 29810.7098 201.1601 275.5421
ENERGY: 300000 1.1515 9.4183 1.7207 0.0000 -10662.2033 1440.2545 0.0000 0.0000 1726.2389 -7483.4194 297.0872 -9209.6582 -7412.3118 298.1069 57.8836 62.1804 29949.2525 304.5414 359.9181
ENERGY: 600000 2.4407 12.5748 1.7881 0.0000 -10638.1849 1462.0112 0.0000 0.0000 1787.5366 -7371.8335 307.6366 -9159.3700 -7381.0631 302.1628 476.8916 522.5490 29534.1089 397.4741 453.2739
ENERGY: 900000 3.1124 7.9483 3.7404 0.0000 -10534.3287 1368.7724 0.0000 0.0000 1754.4831 -7396.2722 301.9480 -9150.7552 -7363.4183 303.8814 -486.7607 -483.4697 30147.6089 156.4433 204.2109
ENERGY: 1200000 2.0430 11.2311 2.0040 0.0000 -10584.8301 1386.6570 0.0000 0.0000 1808.3237 -7374.5714 311.2140 -9182.8950 -7374.7521 303.6928 -251.8108 -176.0671 29792.4403 96.2756 140.6544
ENERGY: 1500000 1.8469 8.9513 3.2608 0.0000 -10440.2678 1351.7162 0.0000 0.0000 1734.6871 -7339.8056 298.5411 -9074.4927 -7378.7270 301.6588 -407.7610 -435.5696 30193.9783 92.9579 133.9118
TCL: Running FEP window  11: Lambda1 0.49999999999999994 Lambda2 0.5499999999999999 [dLambda 0.04999999999999999]
TCL: Setting parameter firsttimestep to 0
TCL: Setting parameter alchLambda to 0.49999999999999994
Info: NONBONDED TABLE R-SQUARED SPACING: 0.0625
Info: NONBONDED TABLE SIZE: 705 POINTS
TCL: Setting parameter alchLambda2 to 0.5499999999999999
Info: NONBONDED TABLE R-SQUARED SPACING: 0.0625
Info: NONBONDED TABLE SIZE: 705 POINTS
TCL: Running for 1500000 steps
ETITLE: TS BOND ANGLE DIHED IMPRP ELECT VDW BOUNDARY MISC KINETIC TOTAL TEMP POTENTIAL TOTALAVG TEMPAVG PRESSURE GPRESSURE VOLUME PRESSAVG GPRESSAVG
ENERGY: 0 1.8469 8.9513 3.2608 0.0000 -10440.2672 1351.0508 0.0000 0.0000 1733.8584 -7341.2991 298.3985 -9075.1575 -7341.2991 298.3985 -496.3269 -430.9012 30193.9783 -496.3269 -430.9012
ENERGY: 300000 1.7683 12.6910 2.8102 0.0000 -10653.1376 1471.5746 0.0000 0.0000 1756.3748 -7407.9188 302.2736 -9164.2935 -7357.6787 303.9240 272.7193 264.2890 30055.5853 -275.5227 -228.7985
ENERGY: 600000 1.1229 9.4809 3.3776 0.0000 -10452.9918 1346.6143 0.0000 0.0000 1762.6716 -7329.7245 303.3573 -9092.3960 -7356.7587 303.5592 -475.3947 -370.6956 29942.8349 -293.3177 -241.0719
ENERGY: 900000 1.5582 14.1933 2.0449 0.0000 -10557.5529 1437.8392 0.0000 0.0000 1728.3155 -7373.6020 297.4446 -9101.9175 -7350.6902 301.3486 -129.2781 -105.1960 30633.8863 -158.4930 -112.5888
ENERGY: 1200000 4.5702 8.9357 1.9106 0.0000 -10542.3899 1409.1587 0.0000 0.0000 1698.5102 -7419.3046 292.3151 -9117.8148 -7361.4560 300.5149 -112.3332 -94.8816 29886.2432 -62.3215 -17.1684
ENERGY: 1500000 2.4688 9.7492 2.9516 0.0000 -10536.3375 1406.8349 0.0000 0.0000 1792.5399 -7321.7931 308.4976 -9114.3330 -7363.6226 300.5840 -357.8402 -281.8941 30216.6496 -89.1993 -39.9209
TCL: Running FEP window  12: Lambda1 0.5499999999999999 Lambda2 0.6    [dLambda 0.050000000000000044]
TCL: Setting parameter firsttimestep to 0
TCL: Setting parameter alchLambda to 0.5499999999999999
Info: NONBONDED TABLE R-SQUARED SPACING: 0.0625
Info: NONBONDED TABLE SIZE: 705 POINTS
TCL: Setting parameter alchLambda2 to 0.6
Info: NONBONDED TABLE R-SQUARED SPACING: 0.0625
Info: NONBONDED TABLE SIZE: 705 POINTS
TCL: Running for 1500000 steps
ETITLE: TS BOND ANGLE DIHED IMPRP ELECT VDW BOUNDARY MISC KINETIC TOTAL TEMP POTENTIAL TOTALAVG TEMPAVG PRESSURE GPRESSURE VOLUME PRESSAVG GPRESSAVG
ENERGY: 0 2.4688 9.7492 2.9516 0.0000 -10536.1868 1406.4756 0.0000 0.0000 1791.6561 -7322.8855 308.3455 -9114.5415 -7322.8855 308.3455 -349.4650 -273.1117 30216.6496 -349.4650 -273.1117
ENERGY: 300000 1.7401 7.9205 2.9835 0.0000 -10440.1451 1312.9526 0.0000 0.0000 1769.3168 -7345.2316 304.5009 -9114.5484 -7370.1093 304.8358 -901.7670 -848.5506 30075.9901 5.6470 60.8660
ENERGY: 600000 2.9616 10.3931 1.9724 0.0000 -10453.5688 1391.5209 0.0000 0.0000 1749.9508 -7296.7700 301.1680 -9046.7207 -7364.9932 303.1586 -161.7650 -119.5784 30206.4739 -33.5173 5.7391
ENERGY: 900000 2.4101 15.1776 2.4772 0.0000 -10561.3750 1460.6634 0.0000 0.0000 1740.4827 -7340.1641 299.5386 -9080.6468 -7380.5636 300.4656 493.6517 521.7006 30034.6985 -43.7637 9.0188
ENERGY: 1200000 5.4675 8.0617 2.9451 0.0000 -10455.8555 1348.2107 0.0000 0.0000 1784.5918 -7306.5788 307.1298 -9091.1706 -7368.4504 300.9699 -139.3659 -138.2422 29414.3197 -85.3389 -45.9845
ENERGY: 1500000 1.2037 9.2353 2.4963 0.0000 -10611.9627 1448.7144 0.0000 0.0000 1724.3863 -7425.9269 296.7683 -9150.3132 -7368.1293 301.4384 458.8835 502.8446 29486.7067 -15.9058 20.4293
TCL: Running FEP window  13: Lambda1 0.6    Lambda2 0.65   [dLambda 0.050000000000000044]
TCL: Setting parameter firsttimestep to 0
TCL: Setting parameter alchLambda to 0.6
Info: NONBONDED TABLE R-SQUARED SPACING: 0.0625
Info: NONBONDED TABLE SIZE: 705 POINTS
TCL: Setting parameter alchLambda2 to 0.65
Info: NONBONDED TABLE R-SQUARED SPACING: 0.0625
Info: NONBONDED TABLE SIZE: 705 POINTS
TCL: Running for 1500000 steps
ETITLE: TS BOND ANGLE DIHED IMPRP ELECT VDW BOUNDARY MISC KINETIC TOTAL TEMP POTENTIAL TOTALAVG TEMPAVG PRESSURE GPRESSURE VOLUME PRESSAVG GPRESSAVG
ENERGY: 0 1.2037 9.2352 2.4963 0.0000 -10611.8417 1450.0273 0.0000 0.0000 1723.5010 -7425.3783 296.6160 -9148.8793 -7425.3783 296.6160 455.4954 529.4693 29486.7067 455.4954 529.4693
ENERGY: 300000 3.7591 11.1548 2.9389 0.0000 -10430.7450 1379.1502 0.0000 0.0000 1754.7730 -7278.9690 301.9979 -9033.7420 -7352.7339 298.8820 98.0133 163.1890 29724.3984 166.3390 233.1870
ENERGY: 600000 5.5619 11.5391 2.1782 0.0000 -10504.5960 1349.1928 0.0000 0.0000 1767.2545 -7368.8695 304.1460 -9136.1240 -7369.6942 299.2413 -705.8929 -717.7674 30070.3564 42.2100 101.9844
ENERGY: 900000 2.0802 14.4794 3.9235 0.0000 -10692.9155 1456.7101 0.0000 0.0000 1793.0330 -7422.6894 308.5825 -9215.7223 -7364.4181 300.7067 -67.0768 -14.9983 30302.1156 157.1869 216.9888
ENERGY: 1200000 3.1313 13.4652 1.9874 0.0000 -10650.4612 1415.8081 0.0000 0.0000 1739.5978 -7476.4715 299.3863 -9216.0693 -7382.3228 300.9823 -465.7623 -370.0419 29971.5714 58.9056 114.1539
ENERGY: 1500000 1.7069 11.5339 3.2751 0.0000 -10696.2270 1520.9758 0.0000 0.0000 1677.5054 -7481.2300 288.7001 -9158.7354 -7388.9113 299.9335 876.9897 905.9165 29496.0113 51.8869 104.7323
TCL: Running FEP window  14: Lambda1 0.65   Lambda2 0.7000000000000001 [dLambda 0.050000000000000044]
TCL: Setting parameter firsttimestep to 0
TCL: Setting parameter alchLambda to 0.65
Info: NONBONDED TABLE R-SQUARED SPACING: 0.0625
Info: NONBONDED TABLE SIZE: 705 POINTS
TCL: Setting parameter alchLambda2 to 0.7000000000000001
Info: NONBONDED TABLE R-SQUARED SPACING: 0.0625
Info: NONBONDED TABLE SIZE: 705 POINTS
TCL: Running for 1500000 steps
ETITLE: TS BOND ANGLE DIHED IMPRP ELECT VDW BOUNDARY MISC KINETIC TOTAL TEMP POTENTIAL TOTALAVG TEMPAVG PRESSURE GPRESSURE VOLUME PRESSAVG GPRESSAVG
ENERGY: 0 1.7069 11.5339 3.2751 0.0000 -10696.3466 1521.0449 0.0000 0.0000 1676.6625 -7482.1233 288.5551 -9158.7859 -7482.1233 288.5551 852.0137 918.4657 29496.0113 852.0137 918.4657
ENERGY: 300000 4.1845 9.8122 3.7326 0.0000 -10641.8674 1396.2834 0.0000 0.0000 1760.0355 -7467.8192 302.9036 -9227.8547 -7441.0398 296.8767 -508.2768 -449.1487 30013.4389 354.6013 440.0384
ENERGY: 600000 2.0773 8.3203 3.6243 0.0000 -10552.1120 1413.0042 0.0000 0.0000 1750.4957 -7374.5902 301.2618 -9125.0858 -7420.0112 296.8120 -232.5615 -148.4537 30267.8882 40.8749 120.3575
ENERGY: 900000 0.8805 12.1199 3.2486 0.0000 -10540.4938 1397.3597 0.0000 0.0000 1732.0772 -7394.8079 298.0920 -9126.8852 -7399.1300 298.8127 -308.2636 -186.6344 30210.9682 -128.8116 -39.6063
ENERGY: 1200000 1.9253 12.0329 4.8123 0.0000 -10546.2313 1420.9476 0.0000 0.0000 1832.0974 -7274.4158 315.3055 -9106.5132 -7387.7022 301.4991 173.7405 298.1112 29615.2617 -117.7828 -20.7084
ENERGY: 1500000 2.3298 11.1617 4.2296 0.0000 -10428.5172 1354.6041 0.0000 0.0000 1723.1887 -7333.0033 296.5622 -9056.1920 -7378.2619 300.7636 -610.2028 -490.3167 30186.5813 -133.0900 -34.9760
TCL: Running FEP window  15: Lambda1 0.7000000000000001 Lambda2 0.7500000000000001 [dLambda 0.050000000000000044]
TCL: Setting parameter firsttimestep to 0
TCL: Setting parameter alchLambda to 0.7000000000000001
Info: NONBONDED TABLE R-SQUARED SPACING: 0.0625
Info: NONBONDED TABLE SIZE: 705 POINTS
TCL: Setting parameter alchLambda2 to 0.7500000000000001
Info: NONBONDED TABLE R-SQUARED SPACING: 0.0625
Info: NONBONDED TABLE SIZE: 705 POINTS
TCL: Running for 1500000 steps
ETITLE: TS BOND ANGLE DIHED IMPRP ELECT VDW BOUNDARY MISC KINETIC TOTAL TEMP POTENTIAL TOTALAVG TEMPAVG PRESSURE GPRESSURE VOLUME PRESSAVG GPRESSAVG
ENERGY: 0 2.3298 11.1617 4.2296 0.0000 -10428.6329 1354.1880 0.0000 0.0000 1722.3358 -7334.3881 296.4155 -9056.7239 -7334.3881 296.4155 -569.5601 -482.6708 30186.5813 -569.5601 -482.6708
ENERGY: 300000 2.4251 10.5451 2.8358 0.0000 -10483.9270 1370.8570 0.0000 0.0000 1847.7535 -7249.5105 318.0000 -9097.2640 -7374.1354 298.7142 -27.4879 -38.0364 29434.0918 -235.4130 -193.1463
ENERGY: 600000 1.0954 9.3617 2.2235 0.0000 -10701.8538 1516.9704 0.0000 0.0000 1783.3871 -7388.8157 306.9224 -9172.2028 -7388.6836 298.5767 654.3358 751.0220 29776.9264 -113.1928 -60.6233
ENERGY: 900000 2.0885 7.7278 2.3993 0.0000 -10638.4030 1474.6666 0.0000 0.0000 1767.0333 -7384.4875 304.1079 -9151.5208 -7383.3424 299.0013 103.7333 188.0372 30400.9248 -99.4894 -41.3341
ENERGY: 1200000 2.1579 6.7206 3.6203 0.0000 -10414.5960 1351.0528 0.0000 0.0000 1769.7804 -7281.2639 304.5807 -9051.0443 -7368.8277 299.2911 -259.2869 -166.4923 30216.5750 -38.9008 29.4081
ENERGY: 1500000 1.7976 12.2838 2.4281 0.0000 -10715.2794 1544.4094 0.0000 0.0000 1774.0471 -7380.3134 305.3150 -9154.3605 -7367.6113 299.8822 1391.8899 1423.5329 29368.5644 38.7808 105.2524
TCL: Running FEP window  16: Lambda1 0.7500000000000001 Lambda2 0.8000000000000002 [dLambda 0.050000000000000044]
TCL: Setting parameter firsttimestep to 0
TCL: Setting parameter alchLambda to 0.7500000000000001
Info: NONBONDED TABLE R-SQUARED SPACING: 0.0625
Info: NONBONDED TABLE SIZE: 705 POINTS
TCL: Setting parameter alchLambda2 to 0.8000000000000002
Info: NONBONDED TABLE R-SQUARED SPACING: 0.0625
Info: NONBONDED TABLE SIZE: 705 POINTS
TCL: Running for 1500000 steps
ETITLE: TS BOND ANGLE DIHED IMPRP ELECT VDW BOUNDARY MISC KINETIC TOTAL TEMP POTENTIAL TOTALAVG TEMPAVG PRESSURE GPRESSURE VOLUME PRESSAVG GPRESSAVG
ENERGY: 0 1.7976 12.2838 2.4281 0.0000 -10715.3969 1544.8857 0.0000 0.0000 1773.1886 -7380.8131 305.1673 -9154.0017 -7380.8131 305.1673 1350.8886 1443.3012 29368.5644 1350.8886 1443.3012
ENERGY: 300000 1.3773 9.2189 2.3549 0.0000 -10414.2783 1376.6948 0.0000 0.0000 1803.5394 -7221.0931 310.3907 -9024.6325 -7334.3445 302.0338 -26.5004 -51.7053 30177.1212 297.8447 352.1824
ENERGY: 600000 0.5375 10.3787 3.4612 0.0000 -10554.0783 1412.7414 0.0000 0.0000 1749.9295 -7377.0300 301.1644 -9126.9595 -7342.4902 302.4662 -256.6070 -227.9283 30363.4923 150.7397 206.0468
ENERGY: 900000 5.2523 8.8421 4.4353 0.0000 -10555.2697 1424.9249 0.0000 0.0000 1744.4716 -7367.3435 300.2251 -9111.8152 -7351.2518 301.8773 -197.4661 -163.0071 30352.5208 89.6469 150.1149
ENERGY: 1200000 2.2317 6.5687 2.7501 0.0000 -10414.2284 1357.2032 0.0000 0.0000 1709.2140 -7336.2608 294.1572 -9045.4747 -7360.2124 301.0782 -133.1532 -55.4138 29916.1206 79.1987 145.0751
ENERGY: 1500000 6.0147 9.3357 2.7267 0.0000 -10459.5103 1343.4741 0.0000 0.0000 1716.2178 -7381.7414 295.3625 -9097.9592 -7365.5127 300.1710 -685.3603 -597.4970 30292.2817 65.8101 136.2607
TCL: Running FEP window  17: Lambda1 0.8000000000000002 Lambda2 0.8500000000000002 [dLambda 0.050000000000000044]
TCL: Setting parameter firsttimestep to 0
TCL: Setting parameter alchLambda to 0.8000000000000002
Info: NONBONDED TABLE R-SQUARED SPACING: 0.0625
Info: NONBONDED TABLE SIZE: 705 POINTS
TCL: Setting parameter alchLambda2 to 0.8500000000000002
Info: NONBONDED TABLE R-SQUARED SPACING: 0.0625
Info: NONBONDED TABLE SIZE: 705 POINTS
TCL: Running for 1500000 steps
ETITLE: TS BOND ANGLE DIHED IMPRP ELECT VDW BOUNDARY MISC KINETIC TOTAL TEMP POTENTIAL TOTALAVG TEMPAVG PRESSURE GPRESSURE VOLUME PRESSAVG GPRESSAVG
ENERGY: 0 6.0147 9.3357 2.7267 0.0000 -10459.5121 1343.2850 0.0000 0.0000 1715.3375 -7382.8125 295.2110 -9098.1500 -7382.8125 295.2110 -675.4693 -586.4879 30292.2817 -675.4693 -586.4879
ENERGY: 300000 2.3380 9.7077 3.0419 0.0000 -10423.8599 1342.2283 0.0000 0.0000 1743.7382 -7322.8057 300.0988 -9066.5440 -7321.4583 300.8000 -288.8163 -288.2427 29899.4261 -328.5300 -278.1837
ENERGY: 600000 1.1472 7.8326 3.6999 0.0000 -10533.9446 1451.5497 0.0000 0.0000 1794.4715 -7275.2438 308.8301 -9069.7153 -7315.6098 303.1400 547.6678 624.9444 29736.1070 -117.3805 -57.5413
ENERGY: 900000 6.9026 9.7162 2.0619 0.0000 -10607.9342 1417.1188 0.0000 0.0000 1775.4567 -7396.6779 305.5576 -9172.1346 -7335.8535 303.5519 2.5629 12.4724 30063.2958 -93.6753 -30.7256
ENERGY: 1200000 1.3950 13.2439 4.8331 0.0000 -10545.2788 1405.0779 0.0000 0.0000 1782.9379 -7337.7910 306.8451 -9120.7290 -7341.6233 303.6253 -233.7230 -176.8003 30263.5613 -91.5116 -33.0173
ENERGY: 1500000 2.2794 10.6312 2.9005 0.0000 -10419.4453 1381.0364 0.0000 0.0000 1779.3429 -7243.2549 306.2264 -9022.5977 -7343.8382 303.1783 54.3103 127.3518 30040.6326 -77.2092 -16.0276
TCL: Running FEP window  18: Lambda1 0.8500000000000002 Lambda2 0.9000000000000002 [dLambda 0.050000000000000044]
TCL: Setting parameter firsttimestep to 0
TCL: Setting parameter alchLambda to 0.8500000000000002
Info: NONBONDED TABLE R-SQUARED SPACING: 0.0625
Info: NONBONDED TABLE SIZE: 705 POINTS
TCL: Setting parameter alchLambda2 to 0.9000000000000002
Info: NONBONDED TABLE R-SQUARED SPACING: 0.0625
Info: NONBONDED TABLE SIZE: 705 POINTS
TCL: Running for 1500000 steps
ETITLE: TS BOND ANGLE DIHED IMPRP ELECT VDW BOUNDARY MISC KINETIC TOTAL TEMP POTENTIAL TOTALAVG TEMPAVG PRESSURE GPRESSURE VOLUME PRESSAVG GPRESSAVG
ENERGY: 0 2.2794 10.6313 2.9005 0.0000 -10419.5268 1381.0739 0.0000 0.0000 1778.4802 -7244.1616 306.0780 -9022.6419 -7244.1616 306.0780 56.9148 139.4336 30040.6326 56.9148 139.4336
ENERGY: 300000 1.7911 9.0829 2.4127 0.0000 -10439.4353 1364.8404 0.0000 0.0000 1745.5668 -7315.7415 300.4135 -9061.3083 -7333.1802 301.8185 -470.9073 -395.3082 30538.6147 -334.8087 -281.1169
ENERGY: 600000 2.8876 8.0882 2.2779 0.0000 -10529.4778 1394.0051 0.0000 0.0000 1751.0013 -7371.2178 301.3488 -9122.2191 -7335.7539 299.9871 -220.3689 -92.3303 30270.6656 -91.5649 -30.4133
ENERGY: 900000 1.0485 10.3816 2.3104 0.0000 -10594.5333 1476.5788 0.0000 0.0000 1725.0595 -7379.1544 296.8842 -9104.2139 -7343.6731 300.1462 373.2903 359.6755 30316.8247 -41.4578 6.7362
ENERGY: 1200000 2.1092 11.1716 2.1896 0.0000 -10614.5454 1490.7153 0.0000 0.0000 1788.7895 -7319.5703 307.8522 -9108.3598 -7346.0750 300.7733 715.7329 754.0976 29815.6821 -7.7252 37.1201
ENERGY: 1500000 1.1041 12.0756 2.4768 0.0000 -10646.3431 1481.5025 0.0000 0.0000 1811.4789 -7337.7053 311.7571 -9149.1842 -7352.8132 301.0475 393.7495 480.4918 30069.5936 7.5139 52.2337
TCL: Running FEP window  19: Lambda1 0.9000000000000002 Lambda2 0.9500000000000003 [dLambda 0.050000000000000044]
TCL: Setting parameter firsttimestep to 0
TCL: Setting parameter alchLambda to 0.9000000000000002
Info: NONBONDED TABLE R-SQUARED SPACING: 0.0625
Info: NONBONDED TABLE SIZE: 705 POINTS
TCL: Setting parameter alchLambda2 to 0.9500000000000003
Info: NONBONDED TABLE R-SQUARED SPACING: 0.0625
Info: NONBONDED TABLE SIZE: 705 POINTS
TCL: Running for 1500000 steps
ETITLE: TS BOND ANGLE DIHED IMPRP ELECT VDW BOUNDARY MISC KINETIC TOTAL TEMP POTENTIAL TOTALAVG TEMPAVG PRESSURE GPRESSURE VOLUME PRESSAVG GPRESSAVG
ENERGY: 0 1.1041 12.0756 2.4768 0.0000 -10646.6799 1481.9551 0.0000 0.0000 1810.5982 -7338.4702 311.6055 -9149.0684 -7338.4702 311.6055 415.8004 504.1465 30069.5936 415.8004 504.1465
ENERGY: 300000 2.2812 7.8491 2.5287 0.0000 -10588.1147 1472.4484 0.0000 0.0000 1772.4649 -7330.5423 305.0427 -9103.0072 -7357.6538 304.2576 541.7675 639.6474 29944.5688 491.8816 565.0311
ENERGY: 600000 0.8931 13.9527 2.9007 0.0000 -10567.1794 1349.4042 0.0000 0.0000 1689.5344 -7510.4943 290.7703 -9200.0287 -7400.5083 301.3998 -650.7676 -623.6519 29836.2500 203.6316 259.7036
ENERGY: 900000 1.6280 9.7223 2.4259 0.0000 -10547.4869 1378.7427 0.0000 0.0000 1720.6823 -7434.2857 296.1309 -9154.9680 -7398.2110 300.9984 -368.5240 -358.4471 30110.9587 196.0812 258.9832
ENERGY: 1200000 2.5523 6.8255 2.8520 0.0000 -10487.9131 1359.8529 0.0000 0.0000 1791.2155 -7324.6149 308.2697 -9115.8304 -7395.3000 301.0301 -435.3491 -378.5556 30182.8187 141.2971 197.4035
ENERGY: 1500000 0.5617 9.8959 2.9124 0.0000 -10452.0442 1370.0177 0.0000 0.0000 1683.1367 -7385.5198 289.6693 -9068.6565 -7394.7584 300.3640 -472.1720 -416.7170 30597.8389 75.9223 130.3527
TCL: Running FEP window  20: Lambda1 0.9500000000000003 Lambda2 1.0    [dLambda 0.04999999999999971]
TCL: Setting parameter firsttimestep to 0
TCL: Setting parameter alchLambda to 0.9500000000000003
Info: NONBONDED TABLE R-SQUARED SPACING: 0.0625
Info: NONBONDED TABLE SIZE: 705 POINTS
TCL: Setting parameter alchLambda2 to 1.0
Info: NONBONDED TABLE R-SQUARED SPACING: 0.0625
Info: NONBONDED TABLE SIZE: 705 POINTS
TCL: Running for 1500000 steps
ETITLE: TS BOND ANGLE DIHED IMPRP ELECT VDW BOUNDARY MISC KINETIC TOTAL TEMP POTENTIAL TOTALAVG TEMPAVG PRESSURE GPRESSURE VOLUME PRESSAVG GPRESSAVG
ENERGY: 0 0.5617 9.8959 2.9124 0.0000 -10452.1427 1369.5928 0.0000 0.0000 1682.2466 -7386.9333 289.5161 -9069.1799 -7386.9333 289.5161 -467.1817 -406.2112 30597.8389 -467.1817 -406.2112
ENERGY: 300000 1.0479 13.3959 2.7954 0.0000 -10502.9029 1400.9741 0.0000 0.0000 1743.7761 -7340.9135 300.1053 -9084.6896 -7382.0380 297.7161 -173.1099 -65.3534 30335.2601 -48.4999 36.3578
ENERGY: 600000 1.5643 10.6982 3.4594 0.0000 -10675.6651 1519.4266 0.0000 0.0000 1786.9406 -7353.5760 307.5340 -9140.5166 -7363.0723 299.5877 741.7752 783.4021 30154.4970 127.6509 218.1519
ENERGY: 900000 2.0419 11.6098 3.3893 0.0000 -10600.6187 1377.9642 0.0000 0.0000 1742.6264 -7462.9871 299.9075 -9205.6135 -7383.1414 299.5178 -641.6363 -552.1030 30111.9215 14.4339 98.7469
ENERGY: 1200000 2.2013 9.7905 3.6843 0.0000 -10524.7043 1480.1414 0.0000 0.0000 1778.1567 -7250.7301 306.0223 -9028.8868 -7371.1534 299.1916 444.5960 531.7162 30630.0840 81.8568 167.2041
ENERGY: 1500000 2.5811 9.7188 2.0195 0.0000 -10722.9731 1503.4323 0.0000 0.0000 1748.3262 -7456.8953 300.8884 -9205.2215 -7373.6597 299.2473 534.6411 681.2471 29625.4097 147.7775 227.8145
TCL: Exiting due to exit command.
