Info: SIMULATION PARAMETERS:
Info: TIMESTEP               2
Info: NUMBER OF STEPS        0
Info: STEPS PER CYCLE        10
Info: PERIODIC CELL BASIS 1  33.0822 0 0
Info: PERIODIC CELL BASIS 2  0 31.6188 0
Info: PERIODIC CELL BASIS 3  0 0 29.4015
Info: PERIODIC CELL CENTER   0 0 0
Info: WRAPPING WATERS AROUND PERIODIC BOUNDARIES ON OUTPUT.
Info: WRAPPING ALL CLUSTERS AROUND PERIODIC BOUNDARIES ON OUTPUT.
Info: FIRST LDB TIMESTEP     50
Info: LAST LDB TIMESTEP     -1
Info: HOM BACKGROUND SCALING 1
Info: PME BACKGROUND SCALING 1
Info: MIN ATOMS PER PATCH    40
Info: EMPTY PATCH LOAD       40 ATOMS
Info: VELOCITY FILE          mobley_52782_equil.vel
Info: CENTER OF MASS MOVING INITIALLY? NO
Info: DIELECTRIC             1
Info: EXCLUDE                SCALED ONE-FOUR
Info: 1-4 ELECTROSTATICS SCALED BY 0.833333
Info: MODIFIED 1-4 VDW PARAMETERS WILL BE USED
Info: DCD FILENAME           mobley_52782_prod.dcd
Info: DCD FREQUENCY          100000
Info: DCD FIRST STEP         100000
Info: DCD FILE WILL CONTAIN UNIT CELL DATA
Info: XST FILENAME           mobley_52782_prod.xst
Info: XST FREQUENCY          100000
Info: NO VELOCITY DCD OUTPUT
Info: NO FORCE DCD OUTPUT
Info: OUTPUT FILENAME        mobley_52782_prod
Info: BINARY OUTPUT FILES WILL BE USED
Info: RESTART FILENAME       mobley_52782_prod.restart
Info: RESTART FREQUENCY      100000
Info: BINARY RESTART FILES WILL BE USED
Info: CUTOFF                 9
Info: PAIRLIST DISTANCE      11
Info: PAIRLIST SHRINK RATE   0.01
Info: PAIRLIST GROW RATE     0.01
Info: PAIRLIST TRIGGER       0.3
Info: PAIRLISTS PER CYCLE    2
Info: PAIRLISTS ENABLED
Info: MARGIN                 2
Info: HYDROGEN GROUP CUTOFF  2.5
Info: PATCH DIMENSION        15.5
Info: ENERGY OUTPUT STEPS    100000
Info: ENERGY EVALUATION STEPS    100000
Info: OUTPUT ENERGY PRECISION 4
Info: CROSSTERM ENERGY INCLUDED IN DIHEDRAL
Info: TIMING OUTPUT STEPS    1000000
Info: PRESSURE OUTPUT STEPS  100000
Info: ALCHEMICAL FEP ON
Info: FEP CURRENT LAMBDA VALUE     1
Info: FEP COMPARISON LAMBDA VALUE  0.95
Info: FEP INTRA-ALCHEMICAL NON-BONDED INTERACTIONS WILL BE RETAINED
Info: FEP INTRA-ALCHEMICAL BONDED INTERACTIONS WILL BE RETAINED
Info: FEP VDW SHIFTING COEFFICIENT 5
Info: FEP ELEC. ACTIVE FOR ANNIHILATED PARTICLES BETWEEN LAMBDA = 0 AND LAMBDA = 0.5
Info: FEP ELEC. ACTIVE FOR EXNIHILATED PARTICLES BETWEEN LAMBDA = 0.5 AND LAMBDA = 1
Info: FEP VDW ACTIVE FOR ANNIHILATED PARTICLES BETWEEN LAMBDA = 0 AND LAMBDA = 1
Info: FEP VDW ACTIVE FOR EXNIHILATED PARTICLES BETWEEN LAMBDA = 0 AND LAMBDA = 1
Info: FEP BOND ACTIVE FOR ANNIHILATED PARTICLES BETWEEN LAMBDA = 1 AND LAMBDA = 1
Info: FEP BOND ACTIVE FOR EXNIHILATED PARTICLES BETWEEN LAMBDA = 0 AND LAMBDA = 0
Info: LANGEVIN DYNAMICS ACTIVE
Info: LANGEVIN TEMPERATURE   300
Info: LANGEVIN USING BBK INTEGRATOR
Info: LANGEVIN DAMPING COEFFICIENT IS 1 INVERSE PS
Info: LANGEVIN DYNAMICS APPLIED TO HYDROGENS
Info: LANGEVIN PISTON PRESSURE CONTROL ACTIVE
Info:        TARGET PRESSURE IS 1.01325 BAR
Info:     OSCILLATION PERIOD IS 50 FS
Info:             DECAY TIME IS 25 FS
Info:     PISTON TEMPERATURE IS 300 K
Info:       PRESSURE CONTROL IS GROUP-BASED
Info:    INITIAL STRAIN RATE IS -0.000284879 -0.000284879 -0.000284879
Info:       CELL FLUCTUATION IS ISOTROPIC
Info: PARTICLE MESH EWALD (PME) ACTIVE
Info: PME TOLERANCE               1e-06
Info: PME EWALD COEFFICIENT       0.348832
Info: PME INTERPOLATION ORDER     4
Info: PME GRID DIMENSIONS         36 32 32
Info: PME MAXIMUM GRID SPACING    1
Info: PME CALCULATION WILL BE PERFORMED ON GPU
Info: FULL ELECTROSTATIC EVALUATION FREQUENCY      2
Info: USING VERLET I (r-RESPA) MTS SCHEME.
Info: C1 SPLITTING OF LONG RANGE ELECTROSTATICS
Info: PLACING ATOMS IN PATCHES BY HYDROGEN GROUPS
Info: RIGID BONDS TO HYDROGEN : ALL
Info:         ERROR TOLERANCE : 1e-08
Info:          MAX ITERATIONS : 100
Info: RIGID WATER USING SETTLE ALGORITHM
Info: RANDOM NUMBER SEED     1744001580
Info: USE HYDROGEN BONDS?    NO
Info: Using AMBER format force field!
Info: AMBER PARM FILE        mobley_52782.prmtop
Info: COORDINATE PDB         mobley_52782.pdb
Info: Exclusions will be read from PARM file!
Info: SCNB (VDW SCALING)     2
Info: USING ARITHMETIC MEAN TO COMBINE L-J SIGMA PARAMETERS
Info: BINARY COORDINATES     mobley_52782_equil.coor
Info: SUMMARY OF PARAMETERS:
Info: 7 BONDS
Info: 7 ANGLES
Info:   7 HARMONIC
Info:   0 COSINE-BASED
Info: 7 DIHEDRAL
Info: 0 IMPROPER
Info: 0 CROSSTERM
Info: 0 VDW
Info: 28 VDW_PAIRS
Info: 0 NBTHOLE_PAIRS
Info: To read alchdata from file: mobley_52782.pdb
Info: To read alchflag data from column: 5
Info: STRUCTURE SUMMARY:
Info: 2999 ATOMS
Info: 2998 BONDS
Info: 20 ANGLES
Info: 24 DIHEDRALS
Info: 0 IMPROPERS
Info: 0 CROSSTERMS
Info: 3037 EXCLUSIONS
Info: 2989 RIGID BONDS
Info: ALCH: 0 ATOMS TO DISAPPEAR IN FINAL STATE
Info: ALCH: 14 ATOMS TO APPEAR IN FINAL STATE
Info: 6008 DEGREES OF FREEDOM
Info: 1005 HYDROGEN GROUPS
Info: 3 ATOMS IN LARGEST HYDROGEN GROUP
Info: 1005 MIGRATION GROUPS
Info: 3 ATOMS IN LARGEST MIGRATION GROUP
Info: TOTAL MASS = 18078 amu
Info: TOTAL CHARGE = -9.99719e-05 e
Info: MASS DENSITY = 0.976111 g/cm^3
Info: ATOM DENSITY = 0.0975138 atoms/A^3
Info: ADDED 0 IMPLICIT EXCLUSIONS
Info: NONBONDED TABLE R-SQUARED SPACING: 0.0625
Info: NONBONDED TABLE SIZE: 705 POINTS
Info: REDUCING NUMBER OF PATCHES TO IMPROVE LOAD BALANCE
Info: REMOVING COM VELOCITY -0.198875 0.12325 0.122447
Info: Use 3D box decompostion in PME FFT.
Info: Updated CUDA force table with 4096 elements.
Info: Updated CUDA LJ table with 7 x 7 elements.
Info: Found 15 unique exclusion lists needing 32 bytes
TCL: Running for 1500000 steps
ETITLE: TS BOND ANGLE DIHED IMPRP ELECT VDW BOUNDARY MISC KINETIC TOTAL TEMP POTENTIAL TOTALAVG TEMPAVG PRESSURE GPRESSURE VOLUME PRESSAVG GPRESSAVG
ENERGY: 0 0.2838 6.3258 4.3221 0.0000 -10775.3940 1448.4539 0.0000 0.0000 1811.7108 -7504.2977 303.4935 -9316.0085 -7504.2977 303.4935 409.4392 496.7024 30754.6115 409.4392 496.7024
ENERGY: 300000 1.4484 4.0983 7.1401 0.0000 -10943.5590 1485.9966 0.0000 0.0000 1778.2668 -7666.6088 297.8910 -9444.8756 -7597.2452 303.7722 207.8650 252.4472 30797.5765 3.6105 97.0407
ENERGY: 600000 2.5456 6.4222 2.5979 0.0000 -10935.4536 1465.7511 0.0000 0.0000 1768.2762 -7689.8606 296.2174 -9458.1368 -7617.0993 301.3368 168.6128 174.8615 30519.5630 -18.1052 78.4900
ENERGY: 900000 1.3738 8.9686 3.8253 0.0000 -10903.8856 1524.5677 0.0000 0.0000 1787.0607 -7578.0894 299.3641 -9365.1502 -7606.6078 301.1998 483.8021 632.3983 30874.2791 32.0451 132.2720
ENERGY: 1200000 2.2708 7.3772 2.2486 0.0000 -10757.7990 1344.0865 0.0000 0.0000 1873.6176 -7528.1982 313.8639 -9401.8158 -7578.4846 302.5291 -601.3217 -520.5003 30580.6757 66.8017 152.7189
ENERGY: 1500000 3.2424 3.9071 4.3639 0.0000 -10859.7748 1448.2233 0.0000 0.0000 1764.4828 -7635.5553 295.5819 -9400.0381 -7582.7666 301.6893 -274.7033 -182.9850 31068.0799 5.0786 88.7219
TCL: Running FEP window   2: Lambda1 0.95   Lambda2 0.8999999999999999 [dLambda -0.050000000000000044]
TCL: Setting parameter firsttimestep to 0
TCL: Setting parameter alchLambda to 0.95
Info: NONBONDED TABLE R-SQUARED SPACING: 0.0625
Info: NONBONDED TABLE SIZE: 705 POINTS
TCL: Setting parameter alchLambda2 to 0.8999999999999999
Info: NONBONDED TABLE R-SQUARED SPACING: 0.0625
Info: NONBONDED TABLE SIZE: 705 POINTS
TCL: Running for 1500000 steps
ETITLE: TS BOND ANGLE DIHED IMPRP ELECT VDW BOUNDARY MISC KINETIC TOTAL TEMP POTENTIAL TOTALAVG TEMPAVG PRESSURE GPRESSURE VOLUME PRESSAVG GPRESSAVG
ENERGY: 0 3.2424 3.9071 4.3639 0.0000 -10858.2995 1448.5754 0.0000 0.0000 1763.5932 -7634.6175 295.4329 -9398.2107 -7634.6175 295.4329 -273.6425 -189.6471 31068.0799 -273.6425 -189.6471
ENERGY: 300000 4.6910 4.6850 1.1926 0.0000 -11021.0690 1522.4167 0.0000 0.0000 1734.2352 -7753.8485 290.5149 -9488.0837 -7620.2929 299.2085 363.5422 475.4405 30740.6733 -135.7724 -59.7718
ENERGY: 600000 4.7652 4.7915 2.6262 0.0000 -10775.7776 1406.7646 0.0000 0.0000 1750.3280 -7606.5021 293.2108 -9356.8301 -7612.7433 298.8285 -436.7814 -410.8635 31130.0457 -370.3455 -302.6598
ENERGY: 900000 3.1910 10.0207 2.9828 0.0000 -10780.2405 1390.1609 0.0000 0.0000 1799.9951 -7573.8899 301.5309 -9373.8850 -7603.5270 300.2728 -675.0731 -616.9026 31247.3147 -314.2416 -240.3580
ENERGY: 1200000 1.7993 7.3353 5.0334 0.0000 -10958.6498 1568.1423 0.0000 0.0000 1792.5676 -7583.7719 300.2866 -9376.3396 -7610.0333 299.4090 948.0290 989.4080 30753.4595 -242.8967 -180.4537
ENERGY: 1500000 5.6724 5.4115 2.8063 0.0000 -10860.3172 1443.1724 0.0000 0.0000 1754.5872 -7648.6674 293.9242 -9403.2546 -7623.5220 298.6790 -7.0575 91.1913 30463.1039 -217.3786 -152.4418
TCL: Running FEP window   3: Lambda1 0.8999999999999999 Lambda2 0.8499999999999999 [dLambda -0.050000000000000044]
TCL: Setting parameter firsttimestep to 0
TCL: Setting parameter alchLambda to 0.8999999999999999
Info: NONBONDED TABLE R-SQUARED SPACING: 0.0625
Info: NONBONDED TABLE SIZE: 705 POINTS
TCL: Setting parameter alchLambda2 to 0.8499999999999999
Info: NONBONDED TABLE R-SQUARED SPACING: 0.0625
Info: NONBONDED TABLE SIZE: 705 POINTS
TCL: Running for 1500000 steps
ETITLE: TS BOND ANGLE DIHED IMPRP ELECT VDW BOUNDARY MISC KINETIC TOTAL TEMP POTENTIAL TOTALAVG TEMPAVG PRESSURE GPRESSURE VOLUME PRESSAVG GPRESSAVG
ENERGY: 0 5.6724 5.4115 2.8063 0.0000 -10859.2373 1444.0134 0.0000 0.0000 1753.7055 -7647.6282 293.7766 -9401.3338 -7647.6282 293.7766 -1.1357 92.1250 30463.1039 -1.1357 92.1250
ENERGY: 300000 2.3856 5.0351 4.5489 0.0000 -10888.3384 1485.9294 0.0000 0.0000 1832.1642 -7558.2753 306.9198 -9390.4394 -7622.1271 299.3036 579.1147 684.9447 30691.6487 77.1178 170.6264
ENERGY: 600000 2.7847 4.1933 3.2537 0.0000 -10681.5463 1314.4522 0.0000 0.0000 1819.1458 -7537.7166 304.7389 -9356.8624 -7615.1579 301.0814 -575.4198 -549.8366 30516.9819 -147.4735 -76.5412
ENERGY: 900000 1.8250 8.1859 3.3436 0.0000 -10852.7641 1414.5464 0.0000 0.0000 1783.5021 -7641.3611 298.7680 -9424.8632 -7637.0761 300.0366 -564.8013 -499.3583 31122.5307 -192.0954 -118.8703
ENERGY: 1200000 3.7853 5.9921 4.0264 0.0000 -10745.0357 1432.6089 0.0000 0.0000 1791.7026 -7506.9204 300.1417 -9298.6230 -7631.9911 299.1378 -34.6176 37.5722 31001.8499 -145.2029 -71.6458
ENERGY: 1500000 3.0138 6.9958 2.1644 0.0000 -10836.7633 1463.2474 0.0000 0.0000 1737.2381 -7624.1037 291.0180 -9361.3419 -7637.3721 298.1768 199.4152 228.6121 30802.7145 -145.1719 -73.8542
TCL: Running FEP window   4: Lambda1 0.8499999999999999 Lambda2 0.7999999999999998 [dLambda -0.050000000000000044]
TCL: Setting parameter firsttimestep to 0
TCL: Setting parameter alchLambda to 0.8499999999999999
Info: NONBONDED TABLE R-SQUARED SPACING: 0.0625
Info: NONBONDED TABLE SIZE: 705 POINTS
TCL: Setting parameter alchLambda2 to 0.7999999999999998
Info: NONBONDED TABLE R-SQUARED SPACING: 0.0625
Info: NONBONDED TABLE SIZE: 705 POINTS
TCL: Running for 1500000 steps
ETITLE: TS BOND ANGLE DIHED IMPRP ELECT VDW BOUNDARY MISC KINETIC TOTAL TEMP POTENTIAL TOTALAVG TEMPAVG PRESSURE GPRESSURE VOLUME PRESSAVG GPRESSAVG
ENERGY: 0 3.0138 6.9958 2.1644 0.0000 -10836.3087 1463.9018 0.0000 0.0000 1736.3299 -7623.9030 290.8658 -9360.2328 -7623.9030 290.8658 141.0535 223.2019 30802.7145 141.0535 223.2019
ENERGY: 300000 2.7569 4.5698 3.3377 0.0000 -10795.0748 1409.4413 0.0000 0.0000 1791.7368 -7583.2323 300.1475 -9374.9691 -7616.9654 298.9852 -642.0834 -567.9797 31616.4453 -37.4739 30.6989
ENERGY: 600000 3.5772 5.6642 4.6520 0.0000 -10961.7371 1508.5552 0.0000 0.0000 1809.4779 -7629.8105 303.1194 -9439.2884 -7630.2633 298.7511 43.3659 107.5612 31327.9651 -56.6035 0.4989
ENERGY: 900000 3.2622 7.4535 8.1430 0.0000 -10786.1685 1372.1129 0.0000 0.0000 1791.5695 -7603.6275 300.1194 -9395.1970 -7613.8077 299.5812 -691.6069 -605.8083 30705.8912 -185.3595 -125.9215
ENERGY: 1200000 3.0296 6.2176 5.8854 0.0000 -10867.1354 1387.1539 0.0000 0.0000 1811.3098 -7653.5390 303.4263 -9464.8488 -7627.8886 299.9347 -984.8801 -904.6869 31276.0818 -115.9811 -56.5161
ENERGY: 1500000 2.5616 3.2205 5.9913 0.0000 -10880.2436 1437.0047 0.0000 0.0000 1798.3187 -7633.1467 301.2500 -9431.4655 -7622.5147 299.6917 -499.8402 -450.0848 31346.8170 -132.8826 -70.2092
TCL: Running FEP window   5: Lambda1 0.7999999999999998 Lambda2 0.7499999999999998 [dLambda -0.050000000000000044]
TCL: Setting parameter firsttimestep to 0
TCL: Setting parameter alchLambda to 0.7999999999999998
Info: NONBONDED TABLE R-SQUARED SPACING: 0.0625
Info: NONBONDED TABLE SIZE: 705 POINTS
TCL: Setting parameter alchLambda2 to 0.7499999999999998
Info: NONBONDED TABLE R-SQUARED SPACING: 0.0625
Info: NONBONDED TABLE SIZE: 705 POINTS
TCL: Running for 1500000 steps
ETITLE: TS BOND ANGLE DIHED IMPRP ELECT VDW BOUNDARY MISC KINETIC TOTAL TEMP POTENTIAL TOTALAVG TEMPAVG PRESSURE GPRESSURE VOLUME PRESSAVG GPRESSAVG
ENERGY: 0 2.5616 3.2205 5.9913 0.0000 -10879.9987 1436.6706 0.0000 0.0000 1797.4316 -7634.1232 301.1014 -9431.5548 -7634.1232 301.1014 -560.2869 -465.7121 31346.8170 -560.2869 -465.7121
ENERGY: 300000 0.6532 7.4831 3.1136 0.0000 -10785.7871 1440.3654 0.0000 0.0000 1781.3745 -7552.7972 298.4116 -9334.1718 -7628.7297 299.7480 305.9743 388.2140 30661.7137 134.9123 214.9361
ENERGY: 600000 2.2800 6.5836 7.4651 0.0000 -10856.1841 1412.6534 0.0000 0.0000 1792.9502 -7634.2518 300.3507 -9427.2019 -7599.1252 301.5547 -402.1248 -388.0238 31084.2639 172.5869 254.2974
ENERGY: 900000 2.7866 6.0890 2.6286 0.0000 -10905.4090 1460.1626 0.0000 0.0000 1811.7826 -7621.9597 303.5055 -9433.7422 -7609.8513 301.3604 -143.7907 -43.4946 30933.5963 80.5253 150.8788
ENERGY: 1200000 4.8839 3.9369 2.6000 0.0000 -10840.1098 1473.0200 0.0000 0.0000 1811.8320 -7543.8369 303.5138 -9355.6690 -7595.7554 300.8389 120.8672 137.5717 31013.4959 96.2646 161.0203
ENERGY: 1500000 1.9331 7.3866 1.9685 0.0000 -10941.1405 1492.0193 0.0000 0.0000 1771.5664 -7666.2666 296.7686 -9437.8330 -7603.3141 300.8710 64.9690 124.4378 30791.1599 14.2054 72.7817
TCL: Running FEP window   6: Lambda1 0.7499999999999998 Lambda2 0.6999999999999997 [dLambda -0.050000000000000044]
TCL: Setting parameter firsttimestep to 0
TCL: Setting parameter alchLambda to 0.7499999999999998
Info: NONBONDED TABLE R-SQUARED SPACING: 0.0625
Info: NONBONDED TABLE SIZE: 705 POINTS
TCL: Setting parameter alchLambda2 to 0.6999999999999997
Info: NONBONDED TABLE R-SQUARED SPACING: 0.0625
Info: NONBONDED TABLE SIZE: 705 POINTS
TCL: Running for 1500000 steps
ETITLE: TS BOND ANGLE DIHED IMPRP ELECT VDW BOUNDARY MISC KINETIC TOTAL TEMP POTENTIAL TOTALAVG TEMPAVG PRESSURE GPRESSURE VOLUME PRESSAVG GPRESSAVG
ENERGY: 0 1.9331 7.3866 1.9685 0.0000 -10940.9608 1492.4888 0.0000 0.0000 1770.6205 -7666.5633 296.6101 -9437.1838 -7666.5633 296.6101 15.9093 118.6481 30791.1599 15.9093 118.6481
ENERGY: 300000 4.0762 3.3526 5.8032 0.0000 -10825.2541 1431.7340 0.0000 0.0000 1795.5720 -7584.7161 300.7899 -9380.2881 -7604.5145 300.7365 132.5272 147.2381 30617.9300 160.1479 222.9997
ENERGY: 600000 1.4250 4.6955 2.4568 0.0000 -10823.7185 1400.4122 0.0000 0.0000 1774.3474 -7640.3816 297.2344 -9414.7290 -7625.8733 297.5123 -509.7427 -409.1129 30862.5338 -122.5763 -55.7021
ENERGY: 900000 2.5495 4.8523 2.6313 0.0000 -10793.6831 1409.8291 0.0000 0.0000 1786.2339 -7587.5869 299.2256 -9373.8208 -7616.7687 297.1181 -352.4900 -314.2973 31005.1229 -152.1112 -93.0030
ENERGY: 1200000 4.7942 2.9674 3.9556 0.0000 -10727.3388 1360.7190 0.0000 0.0000 1747.6192 -7607.2835 292.7570 -9354.9028 -7611.0365 297.3474 -686.2070 -543.4645 30612.2966 -151.3599 -78.6582
ENERGY: 1500000 2.3225 6.6603 5.7608 0.0000 -10871.5206 1534.8570 0.0000 0.0000 1797.5151 -7524.4048 301.1154 -9321.9199 -7609.1794 297.3876 993.2324 1011.1511 30601.5181 -107.3953 -40.8710
TCL: Running FEP window   7: Lambda1 0.6999999999999997 Lambda2 0.6499999999999997 [dLambda -0.050000000000000044]
TCL: Setting parameter firsttimestep to 0
TCL: Setting parameter alchLambda to 0.6999999999999997
Info: NONBONDED TABLE R-SQUARED SPACING: 0.0625
Info: NONBONDED TABLE SIZE: 705 POINTS
TCL: Setting parameter alchLambda2 to 0.6499999999999997
Info: NONBONDED TABLE R-SQUARED SPACING: 0.0625
Info: NONBONDED TABLE SIZE: 705 POINTS
TCL: Running for 1500000 steps
ETITLE: TS BOND ANGLE DIHED IMPRP ELECT VDW BOUNDARY MISC KINETIC TOTAL TEMP POTENTIAL TOTALAVG TEMPAVG PRESSURE GPRESSURE VOLUME PRESSAVG GPRESSAVG
ENERGY: 0 2.3225 6.6603 5.7608 0.0000 -10871.4270 1535.0393 0.0000 0.0000 1796.6274 -7525.0166 300.9667 -9321.6439 -7525.0166 300.9667 909.7754 1004.9235 30601.5181 909.7754 1004.9235
ENERGY: 300000 1.8484 5.0332 2.6486 0.0000 -10828.1686 1378.2481 0.0000 0.0000 1834.1850 -7606.2053 307.2583 -9440.3903 -7574.9067 303.4174 -803.8107 -771.3470 31111.2914 -349.4047 -281.5635
ENERGY: 600000 3.7795 4.6153 6.4770 0.0000 -10971.5749 1488.6595 0.0000 0.0000 1764.8164 -7703.2273 295.6378 -9468.0436 -7605.5195 301.3950 -231.8530 -146.7784 31279.5576 -191.4584 -122.4530
ENERGY: 900000 3.8727 5.9191 2.9167 0.0000 -10849.0321 1403.8492 0.0000 0.0000 1749.1870 -7683.2874 293.0196 -9432.4744 -7598.6382 300.8361 -728.3966 -698.4059 31105.8945 -164.7882 -103.3324
ENERGY: 1200000 2.5797 6.0743 4.1159 0.0000 -10910.6995 1481.7535 0.0000 0.0000 1794.6749 -7621.5012 300.6396 -9416.1761 -7600.4991 300.9463 223.9813 231.0458 30547.9240 -184.3489 -123.8454
ENERGY: 1500000 3.8516 9.4312 3.1280 0.0000 -10881.2074 1476.2195 0.0000 0.0000 1773.7730 -7614.8041 297.1382 -9388.5771 -7602.7732 300.7581 -145.8940 -32.2063 31238.0809 -124.7251 -65.7737
TCL: Running FEP window   8: Lambda1 0.6499999999999997 Lambda2 0.5999999999999996 [dLambda -0.050000000000000044]
TCL: Setting parameter firsttimestep to 0
TCL: Setting parameter alchLambda to 0.6499999999999997
Info: NONBONDED TABLE R-SQUARED SPACING: 0.0625
Info: NONBONDED TABLE SIZE: 705 POINTS
TCL: Setting parameter alchLambda2 to 0.5999999999999996
Info: NONBONDED TABLE R-SQUARED SPACING: 0.0625
Info: NONBONDED TABLE SIZE: 705 POINTS
TCL: Running for 1500000 steps
ETITLE: TS BOND ANGLE DIHED IMPRP ELECT VDW BOUNDARY MISC KINETIC TOTAL TEMP POTENTIAL TOTALAVG TEMPAVG PRESSURE GPRESSURE VOLUME PRESSAVG GPRESSAVG
ENERGY: 0 3.8516 9.4312 3.1280 0.0000 -10880.3989 1476.4538 0.0000 0.0000 1772.9013 -7614.6329 296.9922 -9387.5342 -7614.6329 296.9922 -133.8939 -39.5620 31238.0809 -133.8939 -39.5620
ENERGY: 300000 3.2573 7.7287 6.1912 0.0000 -11009.8504 1582.7428 0.0000 0.0000 1818.9796 -7590.9509 304.7111 -9409.9305 -7586.8196 298.0278 1250.2276 1226.0468 30633.1415 709.5920 767.7576
ENERGY: 600000 2.5180 4.3900 4.4857 0.0000 -11014.3612 1523.9344 0.0000 0.0000 1792.3388 -7686.6942 300.2483 -9479.0330 -7590.0739 300.6141 299.7037 371.6597 30411.1693 347.1165 402.8114
ENERGY: 900000 5.5533 7.2828 6.4319 0.0000 -10995.0054 1498.0282 0.0000 0.0000 1781.6644 -7696.0449 298.4602 -9477.7092 -7604.2282 300.3766 24.9653 112.4595 30675.1363 273.1756 325.8952
ENERGY: 1200000 2.5072 4.1168 3.8131 0.0000 -10812.3617 1432.5464 0.0000 0.0000 1786.2480 -7583.1302 299.2280 -9369.3782 -7597.2742 300.5109 -24.7084 34.9454 30958.6179 287.7169 347.2924
ENERGY: 1500000 2.9662 11.0840 3.7093 0.0000 -10949.7520 1472.4633 0.0000 0.0000 1804.4324 -7655.0968 302.2742 -9459.5292 -7593.8541 301.0108 -263.9038 -240.8587 31011.0268 234.5540 297.4916
TCL: Running FEP window   9: Lambda1 0.5999999999999996 Lambda2 0.5499999999999996 [dLambda -0.050000000000000044]
TCL: Setting parameter firsttimestep to 0
TCL: Setting parameter alchLambda to 0.5999999999999996
Info: NONBONDED TABLE R-SQUARED SPACING: 0.0625
Info: NONBONDED TABLE SIZE: 705 POINTS
TCL: Setting parameter alchLambda2 to 0.5499999999999996
Info: NONBONDED TABLE R-SQUARED SPACING: 0.0625
Info: NONBONDED TABLE SIZE: 705 POINTS
TCL: Running for 1500000 steps
ETITLE: TS BOND ANGLE DIHED IMPRP ELECT VDW BOUNDARY MISC KINETIC TOTAL TEMP POTENTIAL TOTALAVG TEMPAVG PRESSURE GPRESSURE VOLUME PRESSAVG GPRESSAVG
ENERGY: 0 2.9662 11.0840 3.7093 0.0000 -10949.5849 1473.1277 0.0000 0.0000 1803.5609 -7655.1368 302.1282 -9458.6977 -7655.1368 302.1282 -320.8978 -244.4294 31011.0268 -320.8978 -244.4294
ENERGY: 300000 2.2087 5.1504 2.6812 0.0000 -10839.3351 1465.7202 0.0000 0.0000 1744.3467 -7619.2278 292.2088 -9363.5746 -7635.6813 296.5532 -131.5366 -43.4419 31421.7043 -595.9546 -520.4457
ENERGY: 600000 3.8280 5.4470 2.0310 0.0000 -11027.0148 1530.0102 0.0000 0.0000 1813.7314 -7671.9673 303.8319 -9485.6987 -7624.0056 301.4585 439.1146 510.6412 30545.0900 -199.2807 -128.4249
ENERGY: 900000 3.1481 10.0109 4.3352 0.0000 -10931.7433 1498.0929 0.0000 0.0000 1721.0029 -7695.1532 288.2983 -9416.1562 -7628.4771 300.6203 438.1465 498.9608 30183.2562 -4.2306 66.2499
ENERGY: 1200000 2.9208 6.6832 2.7469 0.0000 -11019.5322 1567.6836 0.0000 0.0000 1787.1485 -7652.3492 299.3788 -9439.4977 -7618.6095 301.3459 921.0493 955.4688 30496.5797 18.0426 85.3955
ENERGY: 1500000 2.5773 6.0014 7.1514 0.0000 -10887.4421 1461.7801 0.0000 0.0000 1741.2763 -7668.6557 291.6944 -9409.9320 -7620.7835 300.1918 170.1375 200.4269 30622.3280 39.1629 103.2256
TCL: Running FEP window  10: Lambda1 0.5499999999999996 Lambda2 0.4999999999999996 [dLambda -0.04999999999999999]
TCL: Setting parameter firsttimestep to 0
TCL: Setting parameter alchLambda to 0.5499999999999996
Info: NONBONDED TABLE R-SQUARED SPACING: 0.0625
Info: NONBONDED TABLE SIZE: 705 POINTS
TCL: Setting parameter alchLambda2 to 0.4999999999999996
Info: NONBONDED TABLE R-SQUARED SPACING: 0.0625
Info: NONBONDED TABLE SIZE: 705 POINTS
TCL: Running for 1500000 steps
ETITLE: TS BOND ANGLE DIHED IMPRP ELECT VDW BOUNDARY MISC KINETIC TOTAL TEMP POTENTIAL TOTALAVG TEMPAVG PRESSURE GPRESSURE VOLUME PRESSAVG GPRESSAVG
ENERGY: 0 2.5773 6.0014 7.1514 0.0000 -10887.0686 1461.9940 0.0000 0.0000 1740.4123 -7668.9322 291.5497 -9409.3445 -7668.9322 291.5497 114.6137 193.5634 30622.3280 114.6137 193.5634
ENERGY: 300000 1.4494 6.6567 2.3566 0.0000 -10836.9799 1447.6986 0.0000 0.0000 1832.4909 -7546.3277 306.9745 -9378.8186 -7599.5791 299.1089 71.0822 204.1570 30627.8476 78.8211 165.1406
ENERGY: 600000 3.2603 6.4765 4.3163 0.0000 -10870.6470 1488.2880 0.0000 0.0000 1778.0524 -7590.2536 297.8551 -9368.3059 -7592.3445 298.5779 643.8849 675.9144 30354.3000 229.9135 296.1423
ENERGY: 900000 2.6312 5.8593 3.1438 0.0000 -10790.5501 1476.9474 0.0000 0.0000 1778.3917 -7523.5766 297.9119 -9301.9683 -7596.8037 297.5407 404.5178 444.4708 30740.2361 259.5973 323.0059
ENERGY: 1200000 1.5981 5.7832 3.6190 0.0000 -10762.1681 1421.9417 0.0000 0.0000 1834.1934 -7495.0327 307.2597 -9329.2261 -7584.3524 299.8754 -38.7028 54.8597 30866.5945 205.4051 270.5908
ENERGY: 1500000 2.9161 6.0352 4.5014 0.0000 -10969.3737 1500.2799 0.0000 0.0000 1800.5761 -7655.0650 301.6282 -9455.6411 -7592.0645 299.1929 303.5455 315.7660 30624.1752 162.6066 221.8421
TCL: Running FEP window  11: Lambda1 0.4999999999999996 Lambda2 0.4499999999999996 [dLambda -0.04999999999999999]
TCL: Setting parameter firsttimestep to 0
TCL: Setting parameter alchLambda to 0.4999999999999996
Info: NONBONDED TABLE R-SQUARED SPACING: 0.0625
Info: NONBONDED TABLE SIZE: 705 POINTS
TCL: Setting parameter alchLambda2 to 0.4499999999999996
Info: NONBONDED TABLE R-SQUARED SPACING: 0.0625
Info: NONBONDED TABLE SIZE: 705 POINTS
TCL: Running for 1500000 steps
ETITLE: TS BOND ANGLE DIHED IMPRP ELECT VDW BOUNDARY MISC KINETIC TOTAL TEMP POTENTIAL TOTALAVG TEMPAVG PRESSURE GPRESSURE VOLUME PRESSAVG GPRESSAVG
ENERGY: 0 2.9161 6.0352 4.5014 0.0000 -10969.4447 1501.0803 0.0000 0.0000 1799.7232 -7655.1886 301.4853 -9454.9118 -7655.1886 301.4853 242.0009 310.6198 30624.1752 242.0009 310.6198
ENERGY: 300000 1.4926 4.5778 3.4774 0.0000 -10855.5836 1391.0022 0.0000 0.0000 1807.8126 -7647.2210 302.8404 -9455.0336 -7609.6043 302.3872 -407.1655 -450.7642 30720.8976 -137.2691 -107.9593
ENERGY: 600000 2.8709 4.7884 3.1064 0.0000 -11054.8060 1532.1865 0.0000 0.0000 1714.6303 -7797.2236 287.2308 -9511.8538 -7663.5306 299.4975 430.1782 422.8375 30543.8974 0.4059 34.1093
ENERGY: 900000 4.5692 9.6789 5.7263 0.0000 -10691.1851 1343.7905 0.0000 0.0000 1811.9322 -7515.4880 303.5305 -9327.4202 -7636.2030 299.3097 -1051.6025 -989.6815 31189.3049 -142.0309 -89.0386
ENERGY: 1200000 2.8122 5.7090 5.9693 0.0000 -10936.2909 1473.6291 0.0000 0.0000 1808.5698 -7639.6014 302.9673 -9448.1712 -7629.3897 299.7120 110.0404 99.2343 30578.3804 -124.5944 -75.1614
ENERGY: 1500000 4.1470 4.1841 2.9155 0.0000 -10837.2724 1424.6662 0.0000 0.0000 1720.8353 -7680.5243 288.2702 -9401.3596 -7633.1796 299.0138 -490.8196 -520.4924 30745.0674 -138.6080 -96.9467
TCL: Running FEP window  12: Lambda1 0.4499999999999996 Lambda2 0.39999999999999963 [dLambda -0.04999999999999999]
TCL: Setting parameter firsttimestep to 0
TCL: Setting parameter alchLambda to 0.4499999999999996
Info: NONBONDED TABLE R-SQUARED SPACING: 0.0625
Info: NONBONDED TABLE SIZE: 705 POINTS
TCL: Setting parameter alchLambda2 to 0.39999999999999963
Info: NONBONDED TABLE R-SQUARED SPACING: 0.0625
Info: NONBONDED TABLE SIZE: 705 POINTS
TCL: Running for 1500000 steps
ETITLE: TS BOND ANGLE DIHED IMPRP ELECT VDW BOUNDARY MISC KINETIC TOTAL TEMP POTENTIAL TOTALAVG TEMPAVG PRESSURE GPRESSURE VOLUME PRESSAVG GPRESSAVG
ENERGY: 0 4.1470 4.1841 2.9155 0.0000 -10837.2697 1424.2350 0.0000 0.0000 1719.9729 -7681.8152 288.1257 -9401.7881 -7681.8152 288.1257 -623.2725 -530.7155 30745.0674 -623.2725 -530.7155
ENERGY: 300000 2.8285 3.7710 3.4231 0.0000 -10747.1008 1420.3933 0.0000 0.0000 1763.5943 -7553.0906 295.4331 -9316.6849 -7616.7956 298.6033 -35.2339 34.1615 30873.1381 -43.9775 22.2497
ENERGY: 600000 4.2292 5.1501 2.1251 0.0000 -10742.6855 1350.1585 0.0000 0.0000 1835.3708 -7545.6518 307.4569 -9381.0226 -7598.4220 300.1235 -1092.5463 -1036.9558 31261.1015 -225.6383 -157.4233
ENERGY: 900000 3.6510 5.5639 1.5202 0.0000 -10893.9111 1432.8165 0.0000 0.0000 1842.0558 -7608.3038 308.5768 -9450.3595 -7601.5904 301.2084 -269.8143 -201.7575 30714.5144 -173.6347 -106.4290
ENERGY: 1200000 2.3632 4.3943 6.5048 0.0000 -11085.3283 1561.8127 0.0000 0.0000 1824.2748 -7685.9785 305.5982 -9510.2533 -7614.5277 301.1575 755.6243 836.3492 30428.4532 -102.6055 -46.3087
ENERGY: 1500000 7.6426 5.8650 3.1538 0.0000 -10750.9374 1374.3024 0.0000 0.0000 1835.7751 -7524.1984 307.5247 -9359.9735 -7616.8867 300.9293 -905.6122 -866.5309 31310.5662 -173.3174 -118.6772
TCL: Running FEP window  13: Lambda1 0.39999999999999963 Lambda2 0.34999999999999964 [dLambda -0.04999999999999999]
TCL: Setting parameter firsttimestep to 0
TCL: Setting parameter alchLambda to 0.39999999999999963
Info: NONBONDED TABLE R-SQUARED SPACING: 0.0625
Info: NONBONDED TABLE SIZE: 705 POINTS
TCL: Setting parameter alchLambda2 to 0.34999999999999964
Info: NONBONDED TABLE R-SQUARED SPACING: 0.0625
Info: NONBONDED TABLE SIZE: 705 POINTS
TCL: Running for 1500000 steps
ETITLE: TS BOND ANGLE DIHED IMPRP ELECT VDW BOUNDARY MISC KINETIC TOTAL TEMP POTENTIAL TOTALAVG TEMPAVG PRESSURE GPRESSURE VOLUME PRESSAVG GPRESSAVG
ENERGY: 0 7.6426 5.8650 3.1538 0.0000 -10750.9375 1374.7981 0.0000 0.0000 1834.9020 -7524.5760 307.3784 -9359.4780 -7524.5760 307.3784 -954.3398 -870.3493 31310.5662 -954.3398 -870.3493
ENERGY: 300000 3.3461 4.6867 4.2559 0.0000 -10871.1092 1497.6088 0.0000 0.0000 1728.7078 -7632.5039 289.5890 -9361.2117 -7613.1419 296.9006 574.5579 610.3474 30990.7926 -130.9898 -80.2528
ENERGY: 600000 2.8520 3.9740 1.9913 0.0000 -10653.9751 1355.9584 0.0000 0.0000 1831.4268 -7457.7727 306.7962 -9289.1995 -7577.9836 299.5135 -676.9544 -594.0947 31040.7725 -290.7484 -244.6878
ENERGY: 900000 3.5607 6.2552 3.9636 0.0000 -10709.1557 1383.7631 0.0000 0.0000 1776.9233 -7534.6900 297.6659 -9311.6133 -7574.3340 298.5185 -512.7384 -472.3288 30895.2443 -230.5508 -172.9696
ENERGY: 1200000 2.7094 6.0037 5.6641 0.0000 -10952.8708 1508.8841 0.0000 0.0000 1822.6977 -7606.9119 305.3339 -9429.6096 -7592.2055 297.4484 573.0251 638.2132 30300.4898 -247.2247 -190.2825
ENERGY: 1500000 0.8713 8.2064 4.6667 0.0000 -10765.4180 1361.1117 0.0000 0.0000 1772.2208 -7618.3411 296.8782 -9390.5619 -7600.2313 297.7399 -787.3361 -774.6984 30717.5489 -179.3237 -124.9619
TCL: Running FEP window  14: Lambda1 0.34999999999999964 Lambda2 0.29999999999999966 [dLambda -0.04999999999999999]
TCL: Setting parameter firsttimestep to 0
TCL: Setting parameter alchLambda to 0.34999999999999964
Info: NONBONDED TABLE R-SQUARED SPACING: 0.0625
Info: NONBONDED TABLE SIZE: 705 POINTS
TCL: Setting parameter alchLambda2 to 0.29999999999999966
Info: NONBONDED TABLE R-SQUARED SPACING: 0.0625
Info: NONBONDED TABLE SIZE: 705 POINTS
TCL: Running for 1500000 steps
ETITLE: TS BOND ANGLE DIHED IMPRP ELECT VDW BOUNDARY MISC KINETIC TOTAL TEMP POTENTIAL TOTALAVG TEMPAVG PRESSURE GPRESSURE VOLUME PRESSAVG GPRESSAVG
ENERGY: 0 0.8713 8.2064 4.6667 0.0000 -10765.4178 1360.9910 0.0000 0.0000 1771.3444 -7619.3380 296.7314 -9390.6824 -7619.3380 296.7314 -872.0807 -781.8870 30717.5489 -872.0807 -781.8870
ENERGY: 300000 1.6555 6.8351 4.7106 0.0000 -10838.4510 1438.7411 0.0000 0.0000 1883.8667 -7502.6420 315.5808 -9386.5087 -7570.2910 305.2063 -170.6004 -98.0618 30952.3310 -445.4809 -365.6261
ENERGY: 600000 4.1380 7.5288 1.6787 0.0000 -10928.7700 1492.3193 0.0000 0.0000 1803.5402 -7619.5650 302.1247 -9423.1052 -7566.8598 302.8654 290.2885 285.9252 30598.2261 -295.1263 -238.8590
ENERGY: 900000 1.7243 5.4821 3.1252 0.0000 -10842.7471 1459.2889 0.0000 0.0000 1761.9518 -7611.1748 295.1579 -9373.1266 -7580.3636 301.9813 -31.9877 0.0936 30793.1495 -132.9331 -83.7341
ENERGY: 1200000 3.5897 3.5090 2.3284 0.0000 -10953.1334 1500.9614 0.0000 0.0000 1847.5996 -7595.1452 309.5055 -9442.7448 -7584.8881 302.4125 78.8687 133.7235 30796.2638 -109.2265 -64.0913
ENERGY: 1500000 5.0808 6.7276 3.6350 0.0000 -10906.6835 1455.5696 0.0000 0.0000 1764.1674 -7671.5031 295.5291 -9435.6706 -7589.1300 301.9036 -451.2849 -393.5315 31213.6266 -140.7845 -93.3914
TCL: Running FEP window  15: Lambda1 0.29999999999999966 Lambda2 0.24999999999999967 [dLambda -0.04999999999999999]
TCL: Setting parameter firsttimestep to 0
TCL: Setting parameter alchLambda to 0.29999999999999966
Info: NONBONDED TABLE R-SQUARED SPACING: 0.0625
Info: NONBONDED TABLE SIZE: 705 POINTS
TCL: Setting parameter alchLambda2 to 0.24999999999999967
Info: NONBONDED TABLE R-SQUARED SPACING: 0.0625
Info: NONBONDED TABLE SIZE: 705 POINTS
TCL: Running for 1500000 steps
ETITLE: TS BOND ANGLE DIHED IMPRP ELECT VDW BOUNDARY MISC KINETIC TOTAL TEMP POTENTIAL TOTALAVG TEMPAVG PRESSURE GPRESSURE VOLUME PRESSAVG GPRESSAVG
ENERGY: 0 5.0808 6.7276 3.6350 0.0000 -10906.6838 1455.9165 0.0000 0.0000 1763.2446 -7672.0794 295.3745 -9435.3240 -7672.0794 295.3745 -480.9220 -396.5655 31213.6266 -480.9220 -396.5655
ENERGY: 300000 4.7728 5.5579 5.7390 0.0000 -10894.0253 1464.0188 0.0000 0.0000 1744.4156 -7669.5212 292.2203 -9413.9369 -7606.6829 300.3484 -388.7166 -311.8938 30691.5620 -215.3395 -147.8863
ENERGY: 600000 4.1106 5.6087 6.2203 0.0000 -10782.1273 1395.7437 0.0000 0.0000 1826.6582 -7543.7859 305.9974 -9370.4440 -7606.7831 300.1384 -580.1093 -552.8211 31294.9387 -356.4537 -295.1056
ENERGY: 900000 5.9001 4.9525 3.6316 0.0000 -10844.3073 1416.7296 0.0000 0.0000 1772.3678 -7640.7257 296.9028 -9413.0935 -7619.9841 299.0025 -542.8242 -453.6260 30951.4901 -136.7492 -83.6446
ENERGY: 1200000 1.7035 4.1045 2.9288 0.0000 -10970.5060 1521.9309 0.0000 0.0000 1808.6512 -7631.1871 302.9809 -9439.8383 -7620.7176 298.9465 605.1073 627.8013 30501.9916 -48.9370 2.1173
ENERGY: 1500000 3.2901 4.1639 3.4864 0.0000 -10832.3883 1435.2062 0.0000 0.0000 1778.7762 -7607.4655 297.9763 -9386.2418 -7615.5811 298.9010 -191.8003 -153.4382 30737.2642 -28.2553 20.4834
TCL: Running FEP window  16: Lambda1 0.24999999999999967 Lambda2 0.19999999999999968 [dLambda -0.04999999999999999]
TCL: Setting parameter firsttimestep to 0
TCL: Setting parameter alchLambda to 0.24999999999999967
Info: NONBONDED TABLE R-SQUARED SPACING: 0.0625
Info: NONBONDED TABLE SIZE: 705 POINTS
TCL: Setting parameter alchLambda2 to 0.19999999999999968
Info: NONBONDED TABLE R-SQUARED SPACING: 0.0625
Info: NONBONDED TABLE SIZE: 705 POINTS
TCL: Running for 1500000 steps
ETITLE: TS BOND ANGLE DIHED IMPRP ELECT VDW BOUNDARY MISC KINETIC TOTAL TEMP POTENTIAL TOTALAVG TEMPAVG PRESSURE GPRESSURE VOLUME PRESSAVG GPRESSAVG
ENERGY: 0 3.2901 4.1639 3.4864 0.0000 -10832.3880 1435.7316 0.0000 0.0000 1777.9174 -7607.7986 297.8325 -9385.7160 -7607.7986 297.8325 -233.9731 -155.1062 30737.2642 -233.9731 -155.1062
ENERGY: 300000 1.1202 7.3497 5.5247 0.0000 -10883.0706 1448.7979 0.0000 0.0000 1768.0680 -7652.2100 296.1825 -9420.2781 -7659.0047 295.8873 38.8748 46.5136 30838.3515 43.7502 103.3027
ENERGY: 600000 3.0471 4.4699 4.5624 0.0000 -10957.5255 1560.8212 0.0000 0.0000 1818.4577 -7566.1672 304.6237 -9384.6249 -7644.7509 298.5417 754.3853 784.9666 30771.0497 210.3391 256.5607
ENERGY: 900000 3.6575 4.5108 2.5462 0.0000 -10852.8905 1482.1808 0.0000 0.0000 1891.2329 -7468.7624 316.8148 -9359.9952 -7624.6256 300.0935 572.3209 627.8047 30577.1795 150.9679 194.5371
ENERGY: 1200000 2.0018 7.1922 3.9686 0.0000 -10865.4562 1513.7286 0.0000 0.0000 1743.1814 -7595.3836 292.0136 -9338.5650 -7617.2460 300.5367 402.0467 420.7865 30879.6810 160.9893 199.4842
ENERGY: 1500000 2.4866 5.4389 5.4644 0.0000 -10927.7042 1503.5780 0.0000 0.0000 1795.2132 -7615.5231 300.7298 -9410.7363 -7617.5198 300.6949 195.9780 261.9606 30764.2200 149.5643 190.8924
TCL: Running FEP window  17: Lambda1 0.19999999999999968 Lambda2 0.1499999999999997 [dLambda -0.04999999999999999]
TCL: Setting parameter firsttimestep to 0
TCL: Setting parameter alchLambda to 0.19999999999999968
Info: NONBONDED TABLE R-SQUARED SPACING: 0.0625
Info: NONBONDED TABLE SIZE: 705 POINTS
TCL: Setting parameter alchLambda2 to 0.1499999999999997
Info: NONBONDED TABLE R-SQUARED SPACING: 0.0625
Info: NONBONDED TABLE SIZE: 705 POINTS
TCL: Running for 1500000 steps
ETITLE: TS BOND ANGLE DIHED IMPRP ELECT VDW BOUNDARY MISC KINETIC TOTAL TEMP POTENTIAL TOTALAVG TEMPAVG PRESSURE GPRESSURE VOLUME PRESSAVG GPRESSAVG
ENERGY: 0 2.4866 5.4389 5.4644 0.0000 -10927.7043 1503.4958 0.0000 0.0000 1794.3316 -7616.4870 300.5821 -9410.8186 -7616.4870 300.5821 162.2164 257.1348 30764.2200 162.2164 257.1348
ENERGY: 300000 1.6727 5.7425 3.4424 0.0000 -10765.9594 1409.4690 0.0000 0.0000 1781.0182 -7564.6146 298.3519 -9345.6328 -7614.6468 299.1132 -114.0999 -94.4132 30572.4415 3.1229 45.5217
ENERGY: 600000 2.5989 7.9031 3.6153 0.0000 -10901.1785 1440.9889 0.0000 0.0000 1750.2301 -7695.8422 293.1944 -9446.0724 -7601.7438 299.3177 -275.0142 -219.9659 30724.0768 -13.9646 41.4892
ENERGY: 900000 6.3956 7.5815 3.5399 0.0000 -10894.2807 1463.1947 0.0000 0.0000 1866.3499 -7547.2191 312.6465 -9413.5690 -7595.2710 299.6272 -322.2448 -261.6906 31074.2386 -263.1388 -205.6312
ENERGY: 1200000 5.1654 2.7830 2.8347 0.0000 -10903.2075 1501.5625 0.0000 0.0000 1770.0465 -7620.8155 296.5140 -9390.8620 -7597.0005 298.8886 91.8023 129.4635 30982.5778 -195.2102 -139.8962
ENERGY: 1500000 3.3143 2.9990 2.3328 0.0000 -10888.2101 1535.7280 0.0000 0.0000 1786.2043 -7557.6316 299.2207 -9343.8360 -7596.1426 299.1562 499.7527 585.6661 30842.8525 -217.0181 -153.3044
TCL: Running FEP window  18: Lambda1 0.1499999999999997 Lambda2 0.09999999999999969 [dLambda -0.05 ]
TCL: Setting parameter firsttimestep to 0
TCL: Setting parameter alchLambda to 0.1499999999999997
Info: NONBONDED TABLE R-SQUARED SPACING: 0.0625
Info: NONBONDED TABLE SIZE: 705 POINTS
TCL: Setting parameter alchLambda2 to 0.09999999999999969
Info: NONBONDED TABLE R-SQUARED SPACING: 0.0625
Info: NONBONDED TABLE SIZE: 705 POINTS
TCL: Running for 1500000 steps
ETITLE: TS BOND ANGLE DIHED IMPRP ELECT VDW BOUNDARY MISC KINETIC TOTAL TEMP POTENTIAL TOTALAVG TEMPAVG PRESSURE GPRESSURE VOLUME PRESSAVG GPRESSAVG
ENERGY: 0 3.3143 2.9990 2.3328 0.0000 -10888.2108 1535.3564 0.0000 0.0000 1785.3161 -7558.8922 299.0719 -9344.2083 -7558.8922 299.0719 502.1362 579.5598 30842.8525 502.1362 579.5598
ENERGY: 300000 1.3715 4.6450 3.2673 0.0000 -10896.9126 1444.3443 0.0000 0.0000 1756.2513 -7687.0332 294.2030 -9443.2845 -7612.5326 299.3412 -312.3397 -233.2341 30817.1969 122.3234 187.9553
ENERGY: 600000 5.2076 6.9106 4.8381 0.0000 -10819.7284 1433.6790 0.0000 0.0000 1796.5533 -7572.5399 300.9543 -9369.0932 -7588.7578 301.6909 -223.4437 -210.6862 30991.2303 133.8836 188.6536
ENERGY: 900000 1.4831 3.7976 3.7506 0.0000 -10848.0350 1447.6122 0.0000 0.0000 1798.3675 -7593.0239 301.2582 -9391.3914 -7581.5866 302.0291 -102.1342 -9.3583 30756.2391 -52.9654 9.5488
ENERGY: 1200000 1.3732 6.8860 5.7572 0.0000 -10749.7182 1354.1151 0.0000 0.0000 1804.2167 -7577.3699 302.2381 -9381.5866 -7576.8308 302.3586 -658.0923 -676.5218 30712.4971 -116.6721 -60.7187
ENERGY: 1500000 1.2768 11.0294 4.1725 0.0000 -10851.8773 1473.4585 0.0000 0.0000 1776.1403 -7585.7998 297.5348 -9361.9401 -7575.7549 301.2131 153.9501 201.5966 30882.4697 -14.9110 40.7200
TCL: Running FEP window  19: Lambda1 0.09999999999999969 Lambda2 0.049999999999999684 [dLambda -0.05 ]
TCL: Setting parameter firsttimestep to 0
TCL: Setting parameter alchLambda to 0.09999999999999969
Info: NONBONDED TABLE R-SQUARED SPACING: 0.0625
Info: NONBONDED TABLE SIZE: 705 POINTS
TCL: Setting parameter alchLambda2 to 0.049999999999999684
Info: NONBONDED TABLE R-SQUARED SPACING: 0.0625
Info: NONBONDED TABLE SIZE: 705 POINTS
TCL: Running for 1500000 steps
ETITLE: TS BOND ANGLE DIHED IMPRP ELECT VDW BOUNDARY MISC KINETIC TOTAL TEMP POTENTIAL TOTALAVG TEMPAVG PRESSURE GPRESSURE VOLUME PRESSAVG GPRESSAVG
ENERGY: 0 1.2768 11.0294 4.1725 0.0000 -10851.8775 1473.8013 0.0000 0.0000 1775.2297 -7586.3677 297.3822 -9361.5975 -7586.3677 297.3822 115.5571 199.5038 30882.4697 115.5571 199.5038
ENERGY: 300000 2.5060 10.3423 2.9295 0.0000 -10912.9934 1469.5996 0.0000 0.0000 1754.4738 -7673.1424 293.9052 -9427.6161 -7639.4041 294.4541 134.2702 182.9094 30415.4903 284.2081 339.2586
ENERGY: 600000 3.8593 9.9409 8.7483 0.0000 -10867.1200 1433.5633 0.0000 0.0000 1774.1869 -7636.8213 297.2075 -9411.0082 -7645.2779 295.6363 -271.8469 -198.7817 31117.5406 317.7682 380.4270
ENERGY: 900000 4.9409 3.7992 2.0543 0.0000 -10783.3160 1388.9734 0.0000 0.0000 1800.6695 -7582.8788 301.6438 -9383.5483 -7636.6170 296.8098 -765.6754 -643.8301 30896.2740 66.9322 140.9985
ENERGY: 1200000 2.6565 5.8023 6.3236 0.0000 -10776.8722 1403.1291 0.0000 0.0000 1808.0884 -7550.8722 302.8866 -9358.9606 -7614.7951 298.1132 -755.8420 -657.1462 31284.0133 -2.3101 65.7202
ENERGY: 1500000 2.9087 6.7064 3.8180 0.0000 -10849.6023 1428.3279 0.0000 0.0000 1825.7892 -7582.0520 305.8518 -9407.8413 -7609.1153 299.3524 -132.9466 -69.2052 30400.5877 23.4240 87.8337
TCL: Running FEP window  20: Lambda1 0.049999999999999684 Lambda2 0.0    [dLambda -0.049999999999999684]
TCL: Setting parameter firsttimestep to 0
TCL: Setting parameter alchLambda to 0.049999999999999684
Info: NONBONDED TABLE R-SQUARED SPACING: 0.0625
Info: NONBONDED TABLE SIZE: 705 POINTS
TCL: Setting parameter alchLambda2 to 0.0
Info: NONBONDED TABLE R-SQUARED SPACING: 0.0625
Info: NONBONDED TABLE SIZE: 705 POINTS
TCL: Running for 1500000 steps
ETITLE: TS BOND ANGLE DIHED IMPRP ELECT VDW BOUNDARY MISC KINETIC TOTAL TEMP POTENTIAL TOTALAVG TEMPAVG PRESSURE GPRESSURE VOLUME PRESSAVG GPRESSAVG
ENERGY: 0 2.9087 6.7064 3.8180 0.0000 -10849.6045 1428.2962 0.0000 0.0000 1824.9413 -7582.9339 305.7098 -9407.8751 -7582.9339 305.7098 -167.4666 -71.2729 30400.5877 -167.4666 -71.2729
ENERGY: 300000 3.4578 4.4798 4.8711 0.0000 -10953.2261 1559.8823 0.0000 0.0000 1804.9224 -7575.6126 302.3563 -9380.5350 -7570.5939 304.2196 743.3772 850.8591 30532.0305 202.8973 286.1579
ENERGY: 600000 2.6126 4.1219 4.9380 0.0000 -10685.0658 1418.3811 0.0000 0.0000 1784.1553 -7470.8570 298.8774 -9255.0123 -7569.4680 302.7307 -200.1302 -132.5107 31390.9931 137.2444 214.1339
ENERGY: 900000 3.6020 6.1501 2.5565 0.0000 -10793.2703 1443.2843 0.0000 0.0000 1823.8147 -7513.8626 305.5211 -9337.6774 -7554.1887 304.4523 -114.2385 -26.5856 31284.0107 164.5111 236.4277
ENERGY: 1200000 1.1602 5.7177 4.3396 0.0000 -10889.9647 1526.6189 0.0000 0.0000 1830.6037 -7521.5246 306.6583 -9352.1282 -7559.0761 305.0374 510.6769 553.3556 30968.5721 173.9790 241.4335
ENERGY: 1500000 4.2945 6.0111 3.6549 0.0000 -10755.1252 1374.6026 0.0000 0.0000 1753.7702 -7612.7919 293.7874 -9366.5621 -7563.9928 303.7459 -709.3952 -649.8611 30878.1938 122.9457 186.1664
TCL: Exiting due to exit command.
