Info: SIMULATION PARAMETERS:
Info: TIMESTEP               2
Info: NUMBER OF STEPS        0
Info: STEPS PER CYCLE        10
Info: PERIODIC CELL BASIS 1  31.6673 0 0
Info: PERIODIC CELL BASIS 2  0 29.9918 0
Info: PERIODIC CELL BASIS 3  0 0 31.8379
Info: PERIODIC CELL CENTER   0 0 0
Info: WRAPPING WATERS AROUND PERIODIC BOUNDARIES ON OUTPUT.
Info: WRAPPING ALL CLUSTERS AROUND PERIODIC BOUNDARIES ON OUTPUT.
Info: FIRST LDB TIMESTEP     50
Info: LAST LDB TIMESTEP     -1
Info: HOM BACKGROUND SCALING 1
Info: PME BACKGROUND SCALING 1
Info: MIN ATOMS PER PATCH    40
Info: EMPTY PATCH LOAD       40 ATOMS
Info: VELOCITY FILE          mobley_3274817_equil.vel
Info: CENTER OF MASS MOVING INITIALLY? NO
Info: DIELECTRIC             1
Info: EXCLUDE                SCALED ONE-FOUR
Info: 1-4 ELECTROSTATICS SCALED BY 0.833333
Info: MODIFIED 1-4 VDW PARAMETERS WILL BE USED
Info: DCD FILENAME           mobley_3274817_prod.dcd
Info: DCD FREQUENCY          100000
Info: DCD FIRST STEP         100000
Info: DCD FILE WILL CONTAIN UNIT CELL DATA
Info: XST FILENAME           mobley_3274817_prod.xst
Info: XST FREQUENCY          100000
Info: NO VELOCITY DCD OUTPUT
Info: NO FORCE DCD OUTPUT
Info: OUTPUT FILENAME        mobley_3274817_prod
Info: BINARY OUTPUT FILES WILL BE USED
Info: RESTART FILENAME       mobley_3274817_prod.restart
Info: RESTART FREQUENCY      100000
Info: BINARY RESTART FILES WILL BE USED
Info: CUTOFF                 9
Info: PAIRLIST DISTANCE      11
Info: PAIRLIST SHRINK RATE   0.01
Info: PAIRLIST GROW RATE     0.01
Info: PAIRLIST TRIGGER       0.3
Info: PAIRLISTS PER CYCLE    2
Info: PAIRLISTS ENABLED
Info: MARGIN                 2
Info: HYDROGEN GROUP CUTOFF  2.5
Info: PATCH DIMENSION        15.5
Info: ENERGY OUTPUT STEPS    100000
Info: ENERGY EVALUATION STEPS    100000
Info: OUTPUT ENERGY PRECISION 4
Info: CROSSTERM ENERGY INCLUDED IN DIHEDRAL
Info: TIMING OUTPUT STEPS    1000000
Info: PRESSURE OUTPUT STEPS  100000
Info: ALCHEMICAL FEP ON
Info: FEP CURRENT LAMBDA VALUE     0
Info: FEP COMPARISON LAMBDA VALUE  0.05
Info: FEP INTRA-ALCHEMICAL NON-BONDED INTERACTIONS WILL BE RETAINED
Info: FEP INTRA-ALCHEMICAL BONDED INTERACTIONS WILL BE RETAINED
Info: FEP VDW SHIFTING COEFFICIENT 5
Info: FEP ELEC. ACTIVE FOR ANNIHILATED PARTICLES BETWEEN LAMBDA = 0 AND LAMBDA = 0.5
Info: FEP ELEC. ACTIVE FOR EXNIHILATED PARTICLES BETWEEN LAMBDA = 0.5 AND LAMBDA = 1
Info: FEP VDW ACTIVE FOR ANNIHILATED PARTICLES BETWEEN LAMBDA = 0 AND LAMBDA = 1
Info: FEP VDW ACTIVE FOR EXNIHILATED PARTICLES BETWEEN LAMBDA = 0 AND LAMBDA = 1
Info: FEP BOND ACTIVE FOR ANNIHILATED PARTICLES BETWEEN LAMBDA = 1 AND LAMBDA = 1
Info: FEP BOND ACTIVE FOR EXNIHILATED PARTICLES BETWEEN LAMBDA = 0 AND LAMBDA = 0
Info: LANGEVIN DYNAMICS ACTIVE
Info: LANGEVIN TEMPERATURE   300
Info: LANGEVIN USING BBK INTEGRATOR
Info: LANGEVIN DAMPING COEFFICIENT IS 1 INVERSE PS
Info: LANGEVIN DYNAMICS APPLIED TO HYDROGENS
Info: LANGEVIN PISTON PRESSURE CONTROL ACTIVE
Info:        TARGET PRESSURE IS 1.01325 BAR
Info:     OSCILLATION PERIOD IS 50 FS
Info:             DECAY TIME IS 25 FS
Info:     PISTON TEMPERATURE IS 300 K
Info:       PRESSURE CONTROL IS GROUP-BASED
Info:    INITIAL STRAIN RATE IS -2.64377e-05 -2.64377e-05 -2.64377e-05
Info:       CELL FLUCTUATION IS ISOTROPIC
Info: PARTICLE MESH EWALD (PME) ACTIVE
Info: PME TOLERANCE               1e-06
Info: PME EWALD COEFFICIENT       0.348832
Info: PME INTERPOLATION ORDER     4
Info: PME GRID DIMENSIONS         32 32 32
Info: PME MAXIMUM GRID SPACING    1
Info: PME CALCULATION WILL BE PERFORMED ON GPU
Info: FULL ELECTROSTATIC EVALUATION FREQUENCY      2
Info: USING VERLET I (r-RESPA) MTS SCHEME.
Info: C1 SPLITTING OF LONG RANGE ELECTROSTATICS
Info: PLACING ATOMS IN PATCHES BY HYDROGEN GROUPS
Info: RIGID BONDS TO HYDROGEN : ALL
Info:         ERROR TOLERANCE : 1e-08
Info:          MAX ITERATIONS : 100
Info: RIGID WATER USING SETTLE ALGORITHM
Info: RANDOM NUMBER SEED     1743990547
Info: USE HYDROGEN BONDS?    NO
Info: Using AMBER format force field!
Info: AMBER PARM FILE        mobley_3274817.prmtop
Info: COORDINATE PDB         mobley_3274817.pdb
Info: Exclusions will be read from PARM file!
Info: SCNB (VDW SCALING)     2
Info: USING ARITHMETIC MEAN TO COMBINE L-J SIGMA PARAMETERS
Info: BINARY COORDINATES     mobley_3274817_equil.coor
Info: SUMMARY OF PARAMETERS:
Info: 11 BONDS
Info: 13 ANGLES
Info:   13 HARMONIC
Info:   0 COSINE-BASED
Info: 11 DIHEDRAL
Info: 0 IMPROPER
Info: 0 CROSSTERM
Info: 0 VDW
Info: 45 VDW_PAIRS
Info: 0 NBTHOLE_PAIRS
Info: To read alchdata from file: mobley_3274817.pdb
Info: To read alchflag data from column: 5
Info: STRUCTURE SUMMARY:
Info: 2909 ATOMS
Info: 2909 BONDS
Info: 49 ANGLES
Info: 75 DIHEDRALS
Info: 0 IMPROPERS
Info: 0 CROSSTERMS
Info: 3022 EXCLUSIONS
Info: 2892 RIGID BONDS
Info: ALCH: 0 ATOMS TO DISAPPEAR IN FINAL STATE
Info: ALCH: 29 ATOMS TO APPEAR IN FINAL STATE
Info: 5835 DEGREES OF FREEDOM
Info: 977 HYDROGEN GROUPS
Info: 4 ATOMS IN LARGEST HYDROGEN GROUP
Info: 977 MIGRATION GROUPS
Info: 4 ATOMS IN LARGEST MIGRATION GROUP
Info: TOTAL MASS = 17535.6 amu
Info: TOTAL CHARGE = 9.99689e-05 e
Info: MASS DENSITY = 0.962986 g/cm^3
Info: ATOM DENSITY = 0.0962021 atoms/A^3
Info: ADDED 0 IMPLICIT EXCLUSIONS
Info: NONBONDED TABLE R-SQUARED SPACING: 0.0625
Info: NONBONDED TABLE SIZE: 705 POINTS
Info: REMOVING COM VELOCITY -0.123548 -0.133867 -0.0860667
Info: Use 3D box decompostion in PME FFT.
Info: Updated CUDA force table with 4096 elements.
Info: Updated CUDA LJ table with 9 x 9 elements.
Info: Found 32 unique exclusion lists needing 128 bytes
TCL: Running for 1500000 steps
ETITLE: TS BOND ANGLE DIHED IMPRP ELECT VDW BOUNDARY MISC KINETIC TOTAL TEMP POTENTIAL TOTALAVG TEMPAVG PRESSURE GPRESSURE VOLUME PRESSAVG GPRESSAVG
ENERGY: 0 4.6982 11.8590 10.8990 0.0000 -10463.3425 1412.4187 0.0000 0.0000 1793.1273 -7230.3402 309.2863 -9023.4675 -7230.3402 309.2863 -97.1938 -22.3540 30238.4273 -97.1938 -22.3540
ENERGY: 300000 5.7438 12.5786 4.4736 0.0000 -10604.4983 1490.1719 0.0000 0.0000 1733.7865 -7357.7439 299.0509 -9091.5304 -7282.6827 304.1972 417.8209 419.5885 29740.5357 -94.1134 -30.0198
ENERGY: 600000 12.9111 8.0690 5.4604 0.0000 -10466.6150 1381.1466 0.0000 0.0000 1694.9187 -7364.1092 292.3468 -9059.0279 -7315.9313 302.0134 -405.3418 -454.6657 29660.5359 -153.2005 -111.9745
ENERGY: 900000 7.4934 16.5453 6.6777 0.0000 -10599.2611 1477.6129 0.0000 0.0000 1730.4555 -7360.4763 298.4764 -9090.9318 -7336.0859 301.1062 382.0590 450.3459 29513.5181 -155.1235 -112.3197
ENERGY: 1200000 14.3453 7.3846 6.3729 0.0000 -10519.0753 1399.5285 0.0000 0.0000 1750.8720 -7340.5720 301.9979 -9091.4441 -7338.2432 300.9248 -435.7619 -375.9394 29737.4848 -158.8291 -109.3476
ENERGY: 1500000 7.3223 10.1057 7.8880 0.0000 -10521.7165 1471.4574 0.0000 0.0000 1780.3778 -7244.5653 307.0872 -9024.9431 -7326.0231 301.8503 603.5417 684.3161 29466.1848 -52.6573 8.4830
TCL: Running FEP window   2: Lambda1 0.05   Lambda2 0.1    [dLambda 0.05  ]
TCL: Setting parameter firsttimestep to 0
TCL: Setting parameter alchLambda to 0.05
Info: NONBONDED TABLE R-SQUARED SPACING: 0.0625
Info: NONBONDED TABLE SIZE: 705 POINTS
TCL: Setting parameter alchLambda2 to 0.1
Info: NONBONDED TABLE R-SQUARED SPACING: 0.0625
Info: NONBONDED TABLE SIZE: 705 POINTS
TCL: Running for 1500000 steps
ETITLE: TS BOND ANGLE DIHED IMPRP ELECT VDW BOUNDARY MISC KINETIC TOTAL TEMP POTENTIAL TOTALAVG TEMPAVG PRESSURE GPRESSURE VOLUME PRESSAVG GPRESSAVG
ENERGY: 0 7.3223 10.1057 7.8880 0.0000 -10521.7173 1473.2157 0.0000 0.0000 1779.5500 -7243.6356 306.9444 -9023.1857 -7243.6356 306.9444 598.7250 693.1449 29466.1848 598.7250 693.1449
ENERGY: 300000 6.1632 11.1903 8.5089 0.0000 -10377.9004 1319.9580 0.0000 0.0000 1744.4494 -7287.6305 300.8901 -9032.0800 -7282.0601 302.9265 -887.7686 -826.1062 30312.2107 -94.2671 -30.2789
ENERGY: 600000 8.1622 14.7794 6.4734 0.0000 -10508.2996 1435.9334 0.0000 0.0000 1717.0916 -7325.8597 296.1713 -9042.9513 -7274.3318 300.8665 5.3723 50.3349 29891.1677 55.7686 110.9382
ENERGY: 900000 7.9825 12.2592 11.4084 0.0000 -10570.3490 1479.2338 0.0000 0.0000 1752.2751 -7307.1901 302.2399 -9059.4652 -7285.6768 300.3312 578.8874 664.3271 29420.7816 149.9394 215.2160
ENERGY: 1200000 14.6018 9.0984 5.3582 0.0000 -10487.7555 1361.2681 0.0000 0.0000 1764.5105 -7332.9185 304.3503 -9097.4290 -7281.2388 301.2749 -953.2792 -838.0650 29857.2974 56.2721 126.3557
ENERGY: 1500000 6.0176 7.8252 9.2177 0.0000 -10512.4980 1404.5577 0.0000 0.0000 1737.5797 -7347.3002 299.7052 -9084.8799 -7281.9845 301.6620 -112.4259 -85.6696 29745.1107 126.9660 189.4724
TCL: Running FEP window   3: Lambda1 0.1    Lambda2 0.15000000000000002 [dLambda 0.05000000000000002]
TCL: Setting parameter firsttimestep to 0
TCL: Setting parameter alchLambda to 0.1
Info: NONBONDED TABLE R-SQUARED SPACING: 0.0625
Info: NONBONDED TABLE SIZE: 705 POINTS
TCL: Setting parameter alchLambda2 to 0.15000000000000002
Info: NONBONDED TABLE R-SQUARED SPACING: 0.0625
Info: NONBONDED TABLE SIZE: 705 POINTS
TCL: Running for 1500000 steps
ETITLE: TS BOND ANGLE DIHED IMPRP ELECT VDW BOUNDARY MISC KINETIC TOTAL TEMP POTENTIAL TOTALAVG TEMPAVG PRESSURE GPRESSURE VOLUME PRESSAVG GPRESSAVG
ENERGY: 0 6.0176 7.8252 9.2177 0.0000 -10512.4982 1411.9106 0.0000 0.0000 1736.6750 -7340.8521 299.5491 -9077.5272 -7340.8521 299.5491 -146.0661 -63.9524 29745.1107 -146.0661 -63.9524
ENERGY: 300000 4.5403 14.4719 7.3770 0.0000 -10510.8231 1462.1689 0.0000 0.0000 1744.4419 -7277.8232 300.8888 -9022.2650 -7329.9543 299.5833 143.0227 195.6115 30043.4162 -15.9354 19.1870
ENERGY: 600000 7.0676 13.1897 4.6708 0.0000 -10472.4750 1412.7449 0.0000 0.0000 1723.4287 -7311.3733 297.2644 -9034.8020 -7307.5683 301.0551 -216.9713 -170.7877 30106.9413 -229.8199 -171.6881
ENERGY: 900000 5.4520 10.5049 6.7401 0.0000 -10517.8494 1476.1034 0.0000 0.0000 1685.2330 -7333.8160 290.6762 -9019.0490 -7304.2307 301.0441 506.2620 499.6109 29503.8367 -80.9221 -36.3461
ENERGY: 1200000 8.3425 12.9004 10.5123 0.0000 -10590.0251 1497.0782 0.0000 0.0000 1707.8334 -7353.3584 294.5744 -9061.1918 -7308.9363 300.4251 732.6376 800.7771 29464.0737 -61.7678 -17.2236
ENERGY: 1500000 12.6842 13.1023 7.8389 0.0000 -10466.0676 1366.7929 0.0000 0.0000 1775.5890 -7290.0603 306.2612 -9065.6493 -7311.4059 300.6387 -522.5885 -471.7608 29617.8591 -34.2491 13.3588
TCL: Running FEP window   4: Lambda1 0.15000000000000002 Lambda2 0.2    [dLambda 0.04999999999999999]
TCL: Setting parameter firsttimestep to 0
TCL: Setting parameter alchLambda to 0.15000000000000002
Info: NONBONDED TABLE R-SQUARED SPACING: 0.0625
Info: NONBONDED TABLE SIZE: 705 POINTS
TCL: Setting parameter alchLambda2 to 0.2
Info: NONBONDED TABLE R-SQUARED SPACING: 0.0625
Info: NONBONDED TABLE SIZE: 705 POINTS
TCL: Running for 1500000 steps
ETITLE: TS BOND ANGLE DIHED IMPRP ELECT VDW BOUNDARY MISC KINETIC TOTAL TEMP POTENTIAL TOTALAVG TEMPAVG PRESSURE GPRESSURE VOLUME PRESSAVG GPRESSAVG
ENERGY: 0 12.6842 13.1023 7.8389 0.0000 -10466.0683 1368.5311 0.0000 0.0000 1774.7235 -7289.1884 306.1119 -9063.9119 -7289.1884 306.1119 -536.9715 -454.4991 29617.8591 -536.9715 -454.4991
ENERGY: 300000 7.0577 7.2956 4.8721 0.0000 -10458.5780 1359.4683 0.0000 0.0000 1707.2221 -7372.6623 294.4690 -9079.8843 -7319.3104 300.6516 -623.9884 -606.2918 29898.3262 -337.2520 -290.4716
ENERGY: 600000 10.2807 11.0259 8.4192 0.0000 -10396.7012 1400.9142 0.0000 0.0000 1699.3777 -7266.6836 293.1159 -8966.0612 -7318.9558 299.1017 -311.2540 -256.8837 30412.0098 -98.8817 -32.2982
ENERGY: 900000 6.7582 11.6333 2.1935 0.0000 -10582.2440 1496.6662 0.0000 0.0000 1728.2694 -7336.7234 298.0993 -9064.9927 -7325.9508 299.7710 354.8495 376.8787 30338.6880 26.8500 99.4606
ENERGY: 1200000 10.0245 7.9629 4.8502 0.0000 -10586.9659 1437.5656 0.0000 0.0000 1663.7609 -7462.8018 286.9726 -9126.5628 -7330.3242 297.6533 -304.5461 -287.3430 30095.5525 -118.7042 -54.9345
ENERGY: 1500000 5.7765 13.7448 6.6285 0.0000 -10480.3292 1408.5182 0.0000 0.0000 1768.8410 -7276.8201 305.0973 -9045.6612 -7330.3517 298.1418 -458.6513 -399.6440 30135.5733 -128.9149 -60.0652
TCL: Running FEP window   5: Lambda1 0.2    Lambda2 0.25   [dLambda 0.04999999999999999]
TCL: Setting parameter firsttimestep to 0
TCL: Setting parameter alchLambda to 0.2
Info: NONBONDED TABLE R-SQUARED SPACING: 0.0625
Info: NONBONDED TABLE SIZE: 705 POINTS
TCL: Setting parameter alchLambda2 to 0.25
Info: NONBONDED TABLE R-SQUARED SPACING: 0.0625
Info: NONBONDED TABLE SIZE: 705 POINTS
TCL: Running for 1500000 steps
ETITLE: TS BOND ANGLE DIHED IMPRP ELECT VDW BOUNDARY MISC KINETIC TOTAL TEMP POTENTIAL TOTALAVG TEMPAVG PRESSURE GPRESSURE VOLUME PRESSAVG GPRESSAVG
ENERGY: 0 5.7765 13.7448 6.6285 0.0000 -10480.3287 1409.4292 0.0000 0.0000 1768.0051 -7276.7446 304.9531 -9044.7497 -7276.7446 304.9531 -483.1868 -388.7221 30135.5733 -483.1868 -388.7221
ENERGY: 300000 9.3714 10.1142 5.7155 0.0000 -10696.9804 1494.7921 0.0000 0.0000 1769.4046 -7407.5825 305.1945 -9176.9872 -7339.8896 302.5647 277.3931 373.7621 29253.0507 -183.9445 -93.8554
ENERGY: 600000 3.2576 12.4122 6.3585 0.0000 -10455.1242 1358.7482 0.0000 0.0000 1741.4347 -7332.9130 300.3701 -9074.3477 -7349.8823 301.3528 -588.2721 -565.5251 30151.5948 -412.8742 -334.5538
ENERGY: 900000 7.9898 12.6519 9.4128 0.0000 -10509.2645 1425.7483 0.0000 0.0000 1733.1350 -7320.3267 298.9385 -9053.4617 -7351.0646 299.4643 -298.5395 -227.0014 30200.2781 -263.3764 -185.3142
ENERGY: 1200000 4.2405 8.6719 7.6929 0.0000 -10465.8878 1418.2239 0.0000 0.0000 1747.5259 -7279.5327 301.4208 -9027.0586 -7341.9341 299.6213 432.9085 581.6631 29414.0549 -237.1557 -162.5492
ENERGY: 1500000 8.1096 11.7644 8.6329 0.0000 -10480.6616 1404.7935 0.0000 0.0000 1751.2146 -7296.1465 302.0570 -9047.3612 -7334.7939 300.1893 66.6407 163.8327 29242.7351 -184.4820 -106.3321
TCL: Running FEP window   6: Lambda1 0.25   Lambda2 0.3    [dLambda 0.04999999999999999]
TCL: Setting parameter firsttimestep to 0
TCL: Setting parameter alchLambda to 0.25
Info: NONBONDED TABLE R-SQUARED SPACING: 0.0625
Info: NONBONDED TABLE SIZE: 705 POINTS
TCL: Setting parameter alchLambda2 to 0.3
Info: NONBONDED TABLE R-SQUARED SPACING: 0.0625
Info: NONBONDED TABLE SIZE: 705 POINTS
TCL: Running for 1500000 steps
ETITLE: TS BOND ANGLE DIHED IMPRP ELECT VDW BOUNDARY MISC KINETIC TOTAL TEMP POTENTIAL TOTALAVG TEMPAVG PRESSURE GPRESSURE VOLUME PRESSAVG GPRESSAVG
ENERGY: 0 8.1096 11.7644 8.6329 0.0000 -10480.6611 1404.7771 0.0000 0.0000 1750.3782 -7296.9989 301.9127 -9047.3771 -7296.9989 301.9127 72.4497 173.5769 29242.7351 72.4497 173.5769
ENERGY: 300000 4.9337 13.7658 8.8091 0.0000 -10613.5708 1476.9115 0.0000 0.0000 1795.2643 -7313.8865 309.6549 -9109.1508 -7320.2698 303.0535 685.5660 714.6113 29241.1675 191.2863 224.9923
ENERGY: 600000 4.7747 13.0601 5.6687 0.0000 -10470.8013 1429.4625 0.0000 0.0000 1776.3346 -7241.5007 306.3898 -9017.8353 -7315.9635 303.2146 53.0565 118.9752 30217.1195 56.5424 105.9763
ENERGY: 900000 9.5044 8.8354 5.1866 0.0000 -10552.4745 1408.8984 0.0000 0.0000 1810.1178 -7309.9320 312.2169 -9120.0498 -7320.9766 304.0432 -162.0222 -87.2220 29711.0104 -21.2920 27.2248
ENERGY: 1200000 5.9906 8.1849 6.2125 0.0000 -10439.2114 1380.6147 0.0000 0.0000 1682.9381 -7355.2707 290.2804 -9038.2088 -7321.5699 303.0091 -571.9616 -447.3775 30089.4988 -146.4199 -94.3687
ENERGY: 1500000 10.0079 13.5703 10.5015 0.0000 -10604.9444 1510.7001 0.0000 0.0000 1758.0924 -7302.0722 303.2433 -9060.1645 -7326.1208 302.1883 741.4382 765.0334 29856.9121 -78.9427 -27.6551
TCL: Running FEP window   7: Lambda1 0.3    Lambda2 0.35   [dLambda 0.04999999999999999]
TCL: Setting parameter firsttimestep to 0
TCL: Setting parameter alchLambda to 0.3
Info: NONBONDED TABLE R-SQUARED SPACING: 0.0625
Info: NONBONDED TABLE SIZE: 705 POINTS
TCL: Setting parameter alchLambda2 to 0.35
Info: NONBONDED TABLE R-SQUARED SPACING: 0.0625
Info: NONBONDED TABLE SIZE: 705 POINTS
TCL: Running for 1500000 steps
ETITLE: TS BOND ANGLE DIHED IMPRP ELECT VDW BOUNDARY MISC KINETIC TOTAL TEMP POTENTIAL TOTALAVG TEMPAVG PRESSURE GPRESSURE VOLUME PRESSAVG GPRESSAVG
ENERGY: 0 10.0079 13.5703 10.5015 0.0000 -10604.9445 1510.7035 0.0000 0.0000 1757.2426 -7302.9187 303.0967 -9060.1614 -7302.9187 303.0967 696.5877 773.1924 29856.9121 696.5877 773.1924
ENERGY: 300000 6.9796 9.3881 7.6197 0.0000 -10476.0159 1361.5642 0.0000 0.0000 1754.9166 -7335.5478 302.6955 -9090.4644 -7321.7221 301.6616 -417.5653 -333.4435 29441.6949 211.7345 275.6959
ENERGY: 600000 4.9998 13.2215 6.4228 0.0000 -10618.3087 1479.7301 0.0000 0.0000 1700.7680 -7413.1666 293.3557 -9113.9346 -7320.8305 301.2461 245.2200 420.1638 29653.3744 76.6598 139.4403
ENERGY: 900000 6.7274 12.3199 7.1099 0.0000 -10450.0371 1344.3838 0.0000 0.0000 1792.4401 -7287.0559 309.1677 -9079.4961 -7315.7389 303.3056 -762.0693 -722.5429 30123.9545 6.3276 65.5497
ENERGY: 1200000 4.4265 9.7090 11.2691 0.0000 -10442.3925 1369.9481 0.0000 0.0000 1732.3472 -7314.6926 298.8027 -9047.0398 -7322.3482 302.2093 -539.4341 -404.3186 30055.1795 -40.8470 21.9064
ENERGY: 1500000 4.5164 11.3146 6.2175 0.0000 -10591.1394 1480.2311 0.0000 0.0000 1710.3101 -7378.5496 295.0016 -9088.8597 -7326.4654 300.9852 313.9693 381.4936 29979.7315 51.3059 112.4139
TCL: Running FEP window   8: Lambda1 0.35   Lambda2 0.39999999999999997 [dLambda 0.04999999999999999]
TCL: Setting parameter firsttimestep to 0
TCL: Setting parameter alchLambda to 0.35
Info: NONBONDED TABLE R-SQUARED SPACING: 0.0625
Info: NONBONDED TABLE SIZE: 705 POINTS
TCL: Setting parameter alchLambda2 to 0.39999999999999997
Info: NONBONDED TABLE R-SQUARED SPACING: 0.0625
Info: NONBONDED TABLE SIZE: 705 POINTS
TCL: Running for 1500000 steps
ETITLE: TS BOND ANGLE DIHED IMPRP ELECT VDW BOUNDARY MISC KINETIC TOTAL TEMP POTENTIAL TOTALAVG TEMPAVG PRESSURE GPRESSURE VOLUME PRESSAVG GPRESSAVG
ENERGY: 0 4.5164 11.3146 6.2175 0.0000 -10591.1392 1481.4140 0.0000 0.0000 1709.4362 -7378.2404 294.8509 -9087.6766 -7378.2404 294.8509 321.3597 398.3980 29979.7315 321.3597 398.3980
ENERGY: 300000 5.7275 8.2637 7.5261 0.0000 -10452.2645 1352.2063 0.0000 0.0000 1749.8724 -7328.6685 301.8255 -9078.5409 -7319.6131 303.9033 -740.0123 -617.3759 30173.4189 -154.5773 -60.0499
ENERGY: 600000 9.0278 13.1354 7.0055 0.0000 -10493.1049 1415.8137 0.0000 0.0000 1715.2736 -7332.8490 295.8577 -9048.1225 -7333.2600 300.5443 69.3656 189.0630 29369.2108 -79.4079 36.6593
ENERGY: 900000 2.8055 16.5942 5.3392 0.0000 -10478.8170 1347.4107 0.0000 0.0000 1716.3711 -7390.2962 296.0470 -9106.6673 -7348.0706 299.4540 -580.4754 -517.3539 29860.2797 -163.1925 -63.4745
ENERGY: 1200000 4.3261 17.1641 3.8133 0.0000 -10427.2684 1392.3460 0.0000 0.0000 1759.6577 -7249.9613 303.5133 -9009.6190 -7344.9376 299.2165 -116.9713 -95.5549 29999.7629 -148.7969 -68.1844
ENERGY: 1500000 3.8609 17.6929 5.0128 0.0000 -10417.2468 1376.8759 0.0000 0.0000 1771.1926 -7242.6117 305.5029 -9013.8043 -7333.9958 300.0329 -145.2801 -104.1535 30092.9398 -91.7868 -16.8650
TCL: Running FEP window   9: Lambda1 0.39999999999999997 Lambda2 0.44999999999999996 [dLambda 0.04999999999999999]
TCL: Setting parameter firsttimestep to 0
TCL: Setting parameter alchLambda to 0.39999999999999997
Info: NONBONDED TABLE R-SQUARED SPACING: 0.0625
Info: NONBONDED TABLE SIZE: 705 POINTS
TCL: Setting parameter alchLambda2 to 0.44999999999999996
Info: NONBONDED TABLE R-SQUARED SPACING: 0.0625
Info: NONBONDED TABLE SIZE: 705 POINTS
TCL: Running for 1500000 steps
ETITLE: TS BOND ANGLE DIHED IMPRP ELECT VDW BOUNDARY MISC KINETIC TOTAL TEMP POTENTIAL TOTALAVG TEMPAVG PRESSURE GPRESSURE VOLUME PRESSAVG GPRESSAVG
ENERGY: 0 3.8609 17.6929 5.0128 0.0000 -10417.2463 1375.9668 0.0000 0.0000 1770.3258 -7244.3870 305.3534 -9014.7128 -7244.3870 305.3534 -184.7903 -103.8914 30092.9398 -184.7903 -103.8914
ENERGY: 300000 3.9164 14.4311 7.5837 0.0000 -10581.6414 1438.9605 0.0000 0.0000 1755.7418 -7361.0079 302.8379 -9116.7497 -7321.0145 303.6086 140.4951 183.0665 29697.8390 -64.8735 10.7760
ENERGY: 600000 7.3680 16.7602 5.0484 0.0000 -10550.3623 1481.1983 0.0000 0.0000 1732.3274 -7307.6600 298.7992 -9039.9874 -7300.0722 302.4957 335.6357 351.6101 29938.1743 152.3022 206.2043
ENERGY: 900000 6.8618 11.7402 5.2956 0.0000 -10418.9299 1395.9969 0.0000 0.0000 1735.1826 -7263.8527 299.2917 -8999.0354 -7300.8343 302.5672 127.6502 212.1923 29958.4248 65.3078 126.0124
ENERGY: 1200000 13.3578 9.8567 13.7676 0.0000 -10529.6891 1410.0432 0.0000 0.0000 1761.6008 -7321.0632 303.8484 -9082.6639 -7301.0070 302.0916 -610.9637 -503.4497 30229.5526 -38.5417 27.1398
ENERGY: 1500000 3.5870 10.5991 7.1460 0.0000 -10546.1167 1463.2558 0.0000 0.0000 1797.0760 -7264.4528 309.9674 -9061.5288 -7314.5397 301.8401 832.7737 889.2749 29293.8727 62.8867 129.3678
TCL: Running FEP window  10: Lambda1 0.44999999999999996 Lambda2 0.49999999999999994 [dLambda 0.04999999999999999]
TCL: Setting parameter firsttimestep to 0
TCL: Setting parameter alchLambda to 0.44999999999999996
Info: NONBONDED TABLE R-SQUARED SPACING: 0.0625
Info: NONBONDED TABLE SIZE: 705 POINTS
TCL: Setting parameter alchLambda2 to 0.49999999999999994
Info: NONBONDED TABLE R-SQUARED SPACING: 0.0625
Info: NONBONDED TABLE SIZE: 705 POINTS
TCL: Running for 1500000 steps
ETITLE: TS BOND ANGLE DIHED IMPRP ELECT VDW BOUNDARY MISC KINETIC TOTAL TEMP POTENTIAL TOTALAVG TEMPAVG PRESSURE GPRESSURE VOLUME PRESSAVG GPRESSAVG
ENERGY: 0 3.5870 10.5991 7.1460 0.0000 -10546.1174 1463.0910 0.0000 0.0000 1796.2002 -7265.4941 309.8163 -9061.6943 -7265.4941 309.8163 804.9830 899.4612 29293.8727 804.9830 899.4612
ENERGY: 300000 12.2457 7.8192 10.5709 0.0000 -10550.7435 1385.9166 0.0000 0.0000 1743.6703 -7390.5207 300.7557 -9134.1910 -7324.9322 303.5825 -316.0881 -259.8332 29448.5018 74.6858 139.6916
ENERGY: 600000 4.1905 12.5629 6.7973 0.0000 -10421.7643 1379.8135 0.0000 0.0000 1766.1642 -7252.2359 304.6356 -9018.4000 -7298.3697 304.6536 -352.5174 -278.2862 30391.0520 -69.6825 10.5845
ENERGY: 900000 7.6368 12.4109 6.0526 0.0000 -10497.0267 1451.2376 0.0000 0.0000 1734.4482 -7285.2406 299.1651 -9019.6888 -7307.5399 303.6277 564.0264 605.6345 29788.6823 -31.4163 45.0745
ENERGY: 1200000 8.8200 7.5209 9.1869 0.0000 -10584.1183 1465.7680 0.0000 0.0000 1759.0178 -7333.8047 303.4029 -9092.8225 -7324.8217 302.7310 159.2180 269.5647 29883.4156 -58.7791 13.4985
ENERGY: 1500000 11.3650 15.7990 4.1174 0.0000 -10511.8625 1433.2223 0.0000 0.0000 1769.1532 -7278.2055 305.1511 -9047.3588 -7318.6320 303.2029 89.5125 150.1211 29645.7268 -78.3783 -7.1635
TCL: Running FEP window  11: Lambda1 0.49999999999999994 Lambda2 0.5499999999999999 [dLambda 0.04999999999999999]
TCL: Setting parameter firsttimestep to 0
TCL: Setting parameter alchLambda to 0.49999999999999994
Info: NONBONDED TABLE R-SQUARED SPACING: 0.0625
Info: NONBONDED TABLE SIZE: 705 POINTS
TCL: Setting parameter alchLambda2 to 0.5499999999999999
Info: NONBONDED TABLE R-SQUARED SPACING: 0.0625
Info: NONBONDED TABLE SIZE: 705 POINTS
TCL: Running for 1500000 steps
ETITLE: TS BOND ANGLE DIHED IMPRP ELECT VDW BOUNDARY MISC KINETIC TOTAL TEMP POTENTIAL TOTALAVG TEMPAVG PRESSURE GPRESSURE VOLUME PRESSAVG GPRESSAVG
ENERGY: 0 11.3650 15.7990 4.1174 0.0000 -10511.8615 1432.8956 0.0000 0.0000 1768.3217 -7279.3628 305.0077 -9047.6845 -7279.3628 305.0077 85.7638 162.6538 29645.7268 85.7638 162.6538
ENERGY: 300000 3.8569 13.7707 4.8237 0.0000 -10411.8257 1371.1107 0.0000 0.0000 1736.8777 -7281.3860 299.5841 -9018.2637 -7285.3717 299.0350 -476.4212 -411.6564 30518.2971 230.5709 286.0080
ENERGY: 600000 3.9874 10.0127 6.3419 0.0000 -10630.8361 1513.0096 0.0000 0.0000 1692.7824 -7404.7021 291.9784 -9097.4845 -7311.8056 299.7744 814.8749 890.4465 29270.7955 485.2906 549.6711
ENERGY: 900000 7.0077 10.1209 4.9750 0.0000 -10611.5677 1428.2486 0.0000 0.0000 1772.7443 -7388.4712 305.7705 -9161.2155 -7318.1439 301.9563 -422.0899 -412.4126 29935.8522 185.6471 239.4471
ENERGY: 1200000 5.8500 11.8260 4.1625 0.0000 -10375.5611 1271.3972 0.0000 0.0000 1763.8429 -7318.4825 304.2352 -9082.3254 -7312.5333 302.8874 -1243.9863 -1144.9711 29780.3152 -4.9786 49.5517
ENERGY: 1500000 5.7872 9.5310 6.1778 0.0000 -10446.8115 1363.1594 0.0000 0.0000 1762.9608 -7299.1953 304.0830 -9062.1561 -7316.5866 302.1417 -463.1641 -442.5134 30296.2407 60.4738 114.3460
TCL: Running FEP window  12: Lambda1 0.5499999999999999 Lambda2 0.6    [dLambda 0.050000000000000044]
TCL: Setting parameter firsttimestep to 0
TCL: Setting parameter alchLambda to 0.5499999999999999
Info: NONBONDED TABLE R-SQUARED SPACING: 0.0625
Info: NONBONDED TABLE SIZE: 705 POINTS
TCL: Setting parameter alchLambda2 to 0.6
Info: NONBONDED TABLE R-SQUARED SPACING: 0.0625
Info: NONBONDED TABLE SIZE: 705 POINTS
TCL: Running for 1500000 steps
ETITLE: TS BOND ANGLE DIHED IMPRP ELECT VDW BOUNDARY MISC KINETIC TOTAL TEMP POTENTIAL TOTALAVG TEMPAVG PRESSURE GPRESSURE VOLUME PRESSAVG GPRESSAVG
ENERGY: 0 5.7872 9.5310 6.1778 0.0000 -10447.1137 1363.1858 0.0000 0.0000 1762.0994 -7300.3324 303.9344 -9062.4318 -7300.3324 303.9344 -508.8310 -431.6685 30296.2407 -508.8310 -431.6685
ENERGY: 300000 2.2850 9.4557 4.7036 0.0000 -10577.3937 1467.9149 0.0000 0.0000 1676.3418 -7416.6928 289.1426 -9093.0346 -7326.2237 297.8513 724.6015 742.7285 29443.5812 45.4386 95.9585
ENERGY: 600000 7.1049 14.2029 3.3621 0.0000 -10395.9264 1396.4456 0.0000 0.0000 1761.7114 -7213.0996 303.8675 -8974.8109 -7306.9183 300.8563 162.5697 206.2625 29745.4876 -16.1046 29.8487
ENERGY: 900000 8.8720 12.7028 7.5978 0.0000 -10531.1515 1416.5796 0.0000 0.0000 1771.7639 -7313.6353 305.6014 -9085.3992 -7304.7876 301.1280 168.4326 216.8643 29724.3903 0.1536 47.8559
ENERGY: 1200000 4.3961 9.4086 9.6716 0.0000 -10508.7774 1375.0341 0.0000 0.0000 1783.7846 -7326.4824 307.6748 -9110.2671 -7296.4943 303.1051 -418.0093 -291.6980 29679.5106 -24.6285 30.5305
ENERGY: 1500000 8.9760 14.6797 6.1650 0.0000 -10525.8800 1446.5269 0.0000 0.0000 1727.7046 -7321.8278 298.0019 -9049.5324 -7294.8948 303.2926 -53.1353 -16.1811 29922.8286 -27.9522 21.8892
TCL: Running FEP window  13: Lambda1 0.6    Lambda2 0.65   [dLambda 0.050000000000000044]
TCL: Setting parameter firsttimestep to 0
TCL: Setting parameter alchLambda to 0.6
Info: NONBONDED TABLE R-SQUARED SPACING: 0.0625
Info: NONBONDED TABLE SIZE: 705 POINTS
TCL: Setting parameter alchLambda2 to 0.65
Info: NONBONDED TABLE R-SQUARED SPACING: 0.0625
Info: NONBONDED TABLE SIZE: 705 POINTS
TCL: Running for 1500000 steps
ETITLE: TS BOND ANGLE DIHED IMPRP ELECT VDW BOUNDARY MISC KINETIC TOTAL TEMP POTENTIAL TOTALAVG TEMPAVG PRESSURE GPRESSURE VOLUME PRESSAVG GPRESSAVG
ENERGY: 0 8.9759 14.6797 6.1650 0.0000 -10525.9379 1446.3233 0.0000 0.0000 1726.8587 -7322.9352 297.8560 -9049.7939 -7322.9352 297.8560 -88.4680 -5.8167 29922.8286 -88.4680 -5.8167
ENERGY: 300000 4.2220 15.4660 5.0631 0.0000 -10494.1694 1379.6350 0.0000 0.0000 1711.7411 -7378.0422 295.2484 -9089.7833 -7352.1604 298.8442 -488.7104 -482.9463 30441.0349 -188.3952 -136.9279
ENERGY: 600000 7.6656 11.3312 6.3123 0.0000 -10617.9042 1459.9367 0.0000 0.0000 1707.4522 -7425.2062 294.5087 -9132.6584 -7361.4107 298.2849 29.8132 104.4112 29941.5371 -15.5960 35.1516
ENERGY: 900000 6.1727 11.9510 8.1272 0.0000 -10390.3191 1369.0896 0.0000 0.0000 1778.4551 -7216.5235 306.7556 -8994.9786 -7350.2285 298.0272 -112.1083 -9.5606 30075.5645 112.0778 175.0327
ENERGY: 1200000 5.6405 10.8679 6.5822 0.0000 -10391.0262 1364.8851 0.0000 0.0000 1774.7475 -7228.3030 306.1161 -9003.0505 -7334.8972 298.1948 -421.8715 -344.4619 30395.7938 4.8347 69.5144
ENERGY: 1500000 11.9733 10.9730 5.5502 0.0000 -10452.3989 1330.4030 0.0000 0.0000 1723.2070 -7370.2924 297.2261 -9093.4993 -7333.5152 298.5056 -1123.3648 -1020.9058 30167.9792 -64.4611 -0.6345
TCL: Running FEP window  14: Lambda1 0.65   Lambda2 0.7000000000000001 [dLambda 0.050000000000000044]
TCL: Setting parameter firsttimestep to 0
TCL: Setting parameter alchLambda to 0.65
Info: NONBONDED TABLE R-SQUARED SPACING: 0.0625
Info: NONBONDED TABLE SIZE: 705 POINTS
TCL: Setting parameter alchLambda2 to 0.7000000000000001
Info: NONBONDED TABLE R-SQUARED SPACING: 0.0625
Info: NONBONDED TABLE SIZE: 705 POINTS
TCL: Running for 1500000 steps
ETITLE: TS BOND ANGLE DIHED IMPRP ELECT VDW BOUNDARY MISC KINETIC TOTAL TEMP POTENTIAL TOTALAVG TEMPAVG PRESSURE GPRESSURE VOLUME PRESSAVG GPRESSAVG
ENERGY: 0 11.9733 10.9730 5.5502 0.0000 -10452.9859 1330.1953 0.0000 0.0000 1722.3477 -7371.9464 297.0779 -9094.2941 -7371.9464 297.0779 -1102.9429 -1007.6847 30167.9792 -1102.9429 -1007.6847
ENERGY: 300000 4.4643 14.6066 8.6660 0.0000 -10624.4068 1506.5435 0.0000 0.0000 1774.5636 -7315.5627 306.0843 -9090.1263 -7363.6882 302.8526 671.9316 696.8751 30070.1375 -296.8471 -215.0092
ENERGY: 600000 4.1154 13.7477 6.0817 0.0000 -10429.2343 1361.0421 0.0000 0.0000 1729.6971 -7314.5503 298.3456 -9044.2473 -7350.7552 300.8032 -494.7644 -493.5005 30332.1136 -361.2320 -299.5100
ENERGY: 900000 8.8410 13.6912 8.2926 0.0000 -10404.2043 1287.5899 0.0000 0.0000 1716.0610 -7369.7285 295.9935 -9085.7895 -7351.8112 299.2803 -1178.0046 -1120.8245 29650.9892 -441.1964 -375.4749
ENERGY: 1200000 4.8382 16.5079 8.3929 0.0000 -10551.2723 1491.2941 0.0000 0.0000 1681.6354 -7348.6038 290.0557 -9030.2392 -7344.0167 299.1701 591.8697 651.8418 29940.2179 -318.0691 -251.8378
ENERGY: 1500000 3.6520 14.6848 4.6462 0.0000 -10432.7119 1363.4112 0.0000 0.0000 1747.7407 -7298.5769 301.4578 -9046.3176 -7335.5947 298.8391 -123.1374 -95.8615 29739.4981 -283.3954 -215.6671
TCL: Running FEP window  15: Lambda1 0.7000000000000001 Lambda2 0.7500000000000001 [dLambda 0.050000000000000044]
TCL: Setting parameter firsttimestep to 0
TCL: Setting parameter alchLambda to 0.7000000000000001
Info: NONBONDED TABLE R-SQUARED SPACING: 0.0625
Info: NONBONDED TABLE SIZE: 705 POINTS
TCL: Setting parameter alchLambda2 to 0.7500000000000001
Info: NONBONDED TABLE R-SQUARED SPACING: 0.0625
Info: NONBONDED TABLE SIZE: 705 POINTS
TCL: Running for 1500000 steps
ETITLE: TS BOND ANGLE DIHED IMPRP ELECT VDW BOUNDARY MISC KINETIC TOTAL TEMP POTENTIAL TOTALAVG TEMPAVG PRESSURE GPRESSURE VOLUME PRESSAVG GPRESSAVG
ENERGY: 0 3.6520 14.6848 4.6462 0.0000 -10432.8711 1362.8805 0.0000 0.0000 1746.8530 -7300.1545 301.3047 -9047.0075 -7300.1545 301.3047 -173.7380 -87.8190 29739.4981 -173.7380 -87.8190
ENERGY: 300000 8.0101 10.7001 4.4496 0.0000 -10684.2103 1565.0070 0.0000 0.0000 1711.7808 -7384.2627 295.2553 -9096.0435 -7343.5146 299.7372 1092.7370 1197.7340 30008.7465 321.3230 398.8260
ENERGY: 600000 4.4239 5.8352 6.8914 0.0000 -10606.0544 1459.1638 0.0000 0.0000 1758.7911 -7370.9491 303.3638 -9129.7402 -7353.4828 300.3351 43.5115 161.6884 30034.6934 -26.9855 58.8017
ENERGY: 900000 8.2517 10.6785 5.3899 0.0000 -10411.2145 1382.9214 0.0000 0.0000 1704.1575 -7299.8155 293.9404 -9003.9730 -7323.9159 300.1416 -91.9982 50.5320 30049.9196 -12.6801 68.0574
ENERGY: 1200000 6.0261 10.0259 11.1464 0.0000 -10637.5243 1516.2752 0.0000 0.0000 1745.1015 -7348.9491 301.0026 -9094.0506 -7328.0991 299.6116 837.8562 841.0435 29801.0836 -8.2587 64.2276
ENERGY: 1500000 7.1550 11.6673 5.8455 0.0000 -10466.6470 1373.7725 0.0000 0.0000 1775.3215 -7292.8852 306.2151 -9068.2067 -7320.6974 299.9946 -418.9592 -413.2793 30349.7248 -21.9015 42.9584
TCL: Running FEP window  16: Lambda1 0.7500000000000001 Lambda2 0.8000000000000002 [dLambda 0.050000000000000044]
TCL: Setting parameter firsttimestep to 0
TCL: Setting parameter alchLambda to 0.7500000000000001
Info: NONBONDED TABLE R-SQUARED SPACING: 0.0625
Info: NONBONDED TABLE SIZE: 705 POINTS
TCL: Setting parameter alchLambda2 to 0.8000000000000002
Info: NONBONDED TABLE R-SQUARED SPACING: 0.0625
Info: NONBONDED TABLE SIZE: 705 POINTS
TCL: Running for 1500000 steps
ETITLE: TS BOND ANGLE DIHED IMPRP ELECT VDW BOUNDARY MISC KINETIC TOTAL TEMP POTENTIAL TOTALAVG TEMPAVG PRESSURE GPRESSURE VOLUME PRESSAVG GPRESSAVG
ENERGY: 0 7.1550 11.6673 5.8455 0.0000 -10467.8501 1373.4841 0.0000 0.0000 1774.4548 -7295.2434 306.0656 -9069.6982 -7295.2434 306.0656 -460.9062 -399.6571 30349.7248 -460.9062 -399.6571
ENERGY: 300000 7.4922 7.6947 6.3444 0.0000 -10600.2963 1452.1837 0.0000 0.0000 1788.3421 -7338.2392 308.4609 -9126.5813 -7349.2307 302.6694 450.7109 469.1196 29518.1253 -88.9362 -37.3223
ENERGY: 600000 11.4176 7.8936 4.4827 0.0000 -10463.3834 1336.9260 0.0000 0.0000 1715.8626 -7386.8008 295.9593 -9102.6635 -7333.3656 301.7315 -763.3625 -729.3579 29998.6396 -226.6520 -172.6684
ENERGY: 900000 3.0854 9.0181 5.1794 0.0000 -10533.5608 1402.1822 0.0000 0.0000 1758.7914 -7355.3042 303.3639 -9114.0956 -7345.4015 300.4655 -208.6133 -143.5689 30203.0213 -179.6535 -126.1106
ENERGY: 1200000 7.0400 9.3915 12.1041 0.0000 -10432.4254 1321.3062 0.0000 0.0000 1729.0315 -7353.5520 298.2308 -9082.5835 -7346.1761 300.1416 -786.1619 -721.2728 29701.8385 -292.2987 -239.5118
ENERGY: 1500000 10.7753 12.3477 9.3616 0.0000 -10536.7437 1436.6272 0.0000 0.0000 1754.0223 -7313.6096 302.5413 -9067.6319 -7345.6280 299.8980 -75.2319 -43.1516 29805.4427 -268.7374 -208.7370
TCL: Running FEP window  17: Lambda1 0.8000000000000002 Lambda2 0.8500000000000002 [dLambda 0.050000000000000044]
TCL: Setting parameter firsttimestep to 0
TCL: Setting parameter alchLambda to 0.8000000000000002
Info: NONBONDED TABLE R-SQUARED SPACING: 0.0625
Info: NONBONDED TABLE SIZE: 705 POINTS
TCL: Setting parameter alchLambda2 to 0.8500000000000002
Info: NONBONDED TABLE R-SQUARED SPACING: 0.0625
Info: NONBONDED TABLE SIZE: 705 POINTS
TCL: Running for 1500000 steps
ETITLE: TS BOND ANGLE DIHED IMPRP ELECT VDW BOUNDARY MISC KINETIC TOTAL TEMP POTENTIAL TOTALAVG TEMPAVG PRESSURE GPRESSURE VOLUME PRESSAVG GPRESSAVG
ENERGY: 0 10.7753 12.3477 9.3616 0.0000 -10537.2829 1436.6961 0.0000 0.0000 1753.1092 -7314.9930 302.3838 -9068.1022 -7314.9930 302.3838 -106.4431 -24.7496 29805.4427 -106.4431 -24.7496
ENERGY: 300000 6.3404 10.0647 11.5052 0.0000 -10512.7438 1429.1292 0.0000 0.0000 1712.2004 -7343.5040 295.3277 -9055.7044 -7334.9098 297.3883 -9.8566 79.4751 30055.6344 -122.2966 -50.3020
ENERGY: 600000 5.3815 11.5720 4.7909 0.0000 -10481.7615 1385.8646 0.0000 0.0000 1708.5707 -7365.5818 294.7016 -9074.1525 -7345.4884 298.1291 -154.1296 -99.0343 29651.6554 -366.8730 -294.6302
ENERGY: 900000 5.3449 11.1074 7.1915 0.0000 -10526.7796 1432.5964 0.0000 0.0000 1795.0396 -7275.4999 309.6161 -9070.5395 -7331.3827 300.2594 -165.0005 -89.0702 30614.7689 -90.7734 -28.1294
ENERGY: 1200000 5.1791 9.9016 4.9733 0.0000 -10467.9190 1392.4258 0.0000 0.0000 1715.0503 -7340.3889 295.8192 -9055.4393 -7343.0029 298.8035 -232.5762 -196.5399 30310.4203 -31.6283 28.1734
ENERGY: 1500000 3.6316 9.2441 8.3770 0.0000 -10432.6863 1363.4149 0.0000 0.0000 1725.2730 -7322.7457 297.5825 -9048.0187 -7335.3484 298.7363 -391.1048 -352.7642 30080.9394 -52.5122 7.1167
TCL: Running FEP window  18: Lambda1 0.8500000000000002 Lambda2 0.9000000000000002 [dLambda 0.050000000000000044]
TCL: Setting parameter firsttimestep to 0
TCL: Setting parameter alchLambda to 0.8500000000000002
Info: NONBONDED TABLE R-SQUARED SPACING: 0.0625
Info: NONBONDED TABLE SIZE: 705 POINTS
TCL: Setting parameter alchLambda2 to 0.9000000000000002
Info: NONBONDED TABLE R-SQUARED SPACING: 0.0625
Info: NONBONDED TABLE SIZE: 705 POINTS
TCL: Running for 1500000 steps
ETITLE: TS BOND ANGLE DIHED IMPRP ELECT VDW BOUNDARY MISC KINETIC TOTAL TEMP POTENTIAL TOTALAVG TEMPAVG PRESSURE GPRESSURE VOLUME PRESSAVG GPRESSAVG
ENERGY: 0 3.6316 9.2441 8.3770 0.0000 -10433.9313 1362.9559 0.0000 0.0000 1724.4203 -7325.3024 297.4354 -9049.7228 -7325.3024 297.4354 -417.9942 -343.6921 30080.9394 -417.9942 -343.6921
ENERGY: 300000 5.5396 5.1058 5.8678 0.0000 -10403.4038 1359.4268 0.0000 0.0000 1810.7530 -7216.7108 312.3264 -9027.4639 -7316.2797 299.7114 -234.1882 -150.5340 30297.8263 37.9699 103.0395
ENERGY: 600000 4.8343 10.5251 11.9203 0.0000 -10653.2368 1488.1643 0.0000 0.0000 1765.7710 -7372.0218 304.5677 -9137.7927 -7348.1739 298.9464 655.4548 692.5104 29809.9135 122.9695 177.6083
ENERGY: 900000 7.7049 10.6454 8.0158 0.0000 -10543.5556 1386.3992 0.0000 0.0000 1695.0074 -7435.7828 292.3621 -9130.7902 -7357.3670 297.8754 -480.7832 -412.5836 29985.2769 50.5979 102.4813
ENERGY: 1200000 3.8362 13.1226 10.7818 0.0000 -10484.6564 1426.7941 0.0000 0.0000 1795.2377 -7234.8840 309.6503 -9030.1217 -7349.5768 298.9497 344.8521 320.5933 30037.9768 71.0919 118.0013
ENERGY: 1500000 3.7134 7.9110 9.8242 0.0000 -10599.6609 1439.8648 0.0000 0.0000 1724.8568 -7413.4908 297.5107 -9138.3476 -7357.5593 297.9579 237.6225 293.8257 29760.7132 33.6040 85.7837
TCL: Running FEP window  19: Lambda1 0.9000000000000002 Lambda2 0.9500000000000003 [dLambda 0.050000000000000044]
TCL: Setting parameter firsttimestep to 0
TCL: Setting parameter alchLambda to 0.9000000000000002
Info: NONBONDED TABLE R-SQUARED SPACING: 0.0625
Info: NONBONDED TABLE SIZE: 705 POINTS
TCL: Setting parameter alchLambda2 to 0.9500000000000003
Info: NONBONDED TABLE R-SQUARED SPACING: 0.0625
Info: NONBONDED TABLE SIZE: 705 POINTS
TCL: Running for 1500000 steps
ETITLE: TS BOND ANGLE DIHED IMPRP ELECT VDW BOUNDARY MISC KINETIC TOTAL TEMP POTENTIAL TOTALAVG TEMPAVG PRESSURE GPRESSURE VOLUME PRESSAVG GPRESSAVG
ENERGY: 0 3.7134 7.9110 9.8242 0.0000 -10600.4367 1440.7163 0.0000 0.0000 1724.0016 -7414.2702 297.3632 -9138.2718 -7414.2702 297.3632 241.7682 323.9261 29760.7132 241.7682 323.9261
ENERGY: 300000 4.6609 12.0539 9.5275 0.0000 -10478.2225 1360.5975 0.0000 0.0000 1772.1101 -7319.2727 305.6611 -9091.3828 -7372.4844 300.5492 -328.5312 -350.7028 29919.8119 56.0217 102.0542
ENERGY: 600000 4.4741 9.2915 10.5785 0.0000 -10401.8644 1342.8996 0.0000 0.0000 1766.4737 -7268.1469 304.6889 -9034.6206 -7359.7892 299.1817 -383.7179 -285.0375 30212.2679 -33.8765 27.1020
ENERGY: 900000 6.8349 14.3724 10.3417 0.0000 -10426.6934 1346.6734 0.0000 0.0000 1751.9585 -7296.5125 302.1853 -9048.4710 -7354.3961 298.6199 -800.5992 -712.5467 30374.0433 -57.0176 5.4918
ENERGY: 1200000 7.7598 9.2188 5.7084 0.0000 -10485.4006 1406.5230 0.0000 0.0000 1728.8167 -7327.3740 298.1937 -9056.1907 -7352.6499 299.4790 148.2164 197.7124 29792.6161 -33.3102 24.3760
ENERGY: 1500000 2.3668 10.0029 11.6855 0.0000 -10641.7917 1434.3386 0.0000 0.0000 1744.7012 -7438.6967 300.9335 -9183.3979 -7352.6842 300.0647 -132.0333 -47.5077 29969.1595 24.0973 81.9551
TCL: Running FEP window  20: Lambda1 0.9500000000000003 Lambda2 1.0    [dLambda 0.04999999999999971]
TCL: Setting parameter firsttimestep to 0
TCL: Setting parameter alchLambda to 0.9500000000000003
Info: NONBONDED TABLE R-SQUARED SPACING: 0.0625
Info: NONBONDED TABLE SIZE: 705 POINTS
TCL: Setting parameter alchLambda2 to 1.0
Info: NONBONDED TABLE R-SQUARED SPACING: 0.0625
Info: NONBONDED TABLE SIZE: 705 POINTS
TCL: Running for 1500000 steps
ETITLE: TS BOND ANGLE DIHED IMPRP ELECT VDW BOUNDARY MISC KINETIC TOTAL TEMP POTENTIAL TOTALAVG TEMPAVG PRESSURE GPRESSURE VOLUME PRESSAVG GPRESSAVG
ENERGY: 0 2.3668 10.0029 11.6855 0.0000 -10642.0835 1433.8781 0.0000 0.0000 1743.8743 -7440.2759 300.7909 -9184.1502 -7440.2759 300.7909 -120.4667 -31.8899 29969.1595 -120.4667 -31.8899
ENERGY: 300000 6.2638 14.0918 5.3437 0.0000 -10576.3429 1456.4093 0.0000 0.0000 1797.1682 -7297.0660 309.9833 -9094.2342 -7352.8640 301.2007 343.4548 387.2222 30119.1857 7.5430 64.2541
ENERGY: 600000 7.0957 13.9135 7.5142 0.0000 -10411.3615 1376.6325 0.0000 0.0000 1725.6229 -7280.5828 297.6428 -9006.2057 -7348.3457 299.0856 -133.5834 -71.6013 30279.9897 -94.5001 -19.8060
ENERGY: 900000 9.5325 12.1524 11.7761 0.0000 -10403.7146 1327.7101 0.0000 0.0000 1697.8085 -7344.7350 292.8453 -9042.5434 -7349.9735 298.7425 -762.7195 -717.7429 30093.4464 11.5999 72.1846
ENERGY: 1200000 4.0249 12.0234 7.8294 0.0000 -10366.8703 1334.6149 0.0000 0.0000 1766.9061 -7241.4716 304.7635 -9008.3777 -7343.8643 298.8818 -359.8972 -300.1300 30030.6541 -27.2721 29.3970
ENERGY: 1500000 3.5883 12.4977 8.8334 0.0000 -10618.6177 1469.6548 0.0000 0.0000 1706.4330 -7417.6106 294.3329 -9124.0435 -7346.4471 298.4430 582.8245 615.7245 29686.8504 48.4949 105.8319
TCL: Exiting due to exit command.
