Info: SIMULATION PARAMETERS:
Info: TIMESTEP               2
Info: NUMBER OF STEPS        0
Info: STEPS PER CYCLE        10
Info: PERIODIC CELL BASIS 1  29.996 0 0
Info: PERIODIC CELL BASIS 2  0 33.1773 0
Info: PERIODIC CELL BASIS 3  0 0 30.4107
Info: PERIODIC CELL CENTER   0 0 0
Info: WRAPPING WATERS AROUND PERIODIC BOUNDARIES ON OUTPUT.
Info: WRAPPING ALL CLUSTERS AROUND PERIODIC BOUNDARIES ON OUTPUT.
Info: FIRST LDB TIMESTEP     50
Info: LAST LDB TIMESTEP     -1
Info: HOM BACKGROUND SCALING 1
Info: PME BACKGROUND SCALING 1
Info: MIN ATOMS PER PATCH    40
Info: EMPTY PATCH LOAD       40 ATOMS
Info: VELOCITY FILE          mobley_2725215_equil.vel
Info: CENTER OF MASS MOVING INITIALLY? NO
Info: DIELECTRIC             1
Info: EXCLUDE                SCALED ONE-FOUR
Info: 1-4 ELECTROSTATICS SCALED BY 0.833333
Info: MODIFIED 1-4 VDW PARAMETERS WILL BE USED
Info: DCD FILENAME           mobley_2725215_prod.dcd
Info: DCD FREQUENCY          100000
Info: DCD FIRST STEP         100000
Info: DCD FILE WILL CONTAIN UNIT CELL DATA
Info: XST FILENAME           mobley_2725215_prod.xst
Info: XST FREQUENCY          100000
Info: NO VELOCITY DCD OUTPUT
Info: NO FORCE DCD OUTPUT
Info: OUTPUT FILENAME        mobley_2725215_prod
Info: BINARY OUTPUT FILES WILL BE USED
Info: RESTART FILENAME       mobley_2725215_prod.restart
Info: RESTART FREQUENCY      100000
Info: BINARY RESTART FILES WILL BE USED
Info: CUTOFF                 9
Info: PAIRLIST DISTANCE      11
Info: PAIRLIST SHRINK RATE   0.01
Info: PAIRLIST GROW RATE     0.01
Info: PAIRLIST TRIGGER       0.3
Info: PAIRLISTS PER CYCLE    2
Info: PAIRLISTS ENABLED
Info: MARGIN                 2
Info: HYDROGEN GROUP CUTOFF  2.5
Info: PATCH DIMENSION        15.5
Info: ENERGY OUTPUT STEPS    100000
Info: ENERGY EVALUATION STEPS    100000
Info: OUTPUT ENERGY PRECISION 4
Info: CROSSTERM ENERGY INCLUDED IN DIHEDRAL
Info: TIMING OUTPUT STEPS    1000000
Info: PRESSURE OUTPUT STEPS  100000
Info: ALCHEMICAL FEP ON
Info: FEP CURRENT LAMBDA VALUE     1
Info: FEP COMPARISON LAMBDA VALUE  0.95
Info: FEP INTRA-ALCHEMICAL NON-BONDED INTERACTIONS WILL BE RETAINED
Info: FEP INTRA-ALCHEMICAL BONDED INTERACTIONS WILL BE RETAINED
Info: FEP VDW SHIFTING COEFFICIENT 5
Info: FEP ELEC. ACTIVE FOR ANNIHILATED PARTICLES BETWEEN LAMBDA = 0 AND LAMBDA = 0.5
Info: FEP ELEC. ACTIVE FOR EXNIHILATED PARTICLES BETWEEN LAMBDA = 0.5 AND LAMBDA = 1
Info: FEP VDW ACTIVE FOR ANNIHILATED PARTICLES BETWEEN LAMBDA = 0 AND LAMBDA = 1
Info: FEP VDW ACTIVE FOR EXNIHILATED PARTICLES BETWEEN LAMBDA = 0 AND LAMBDA = 1
Info: FEP BOND ACTIVE FOR ANNIHILATED PARTICLES BETWEEN LAMBDA = 1 AND LAMBDA = 1
Info: FEP BOND ACTIVE FOR EXNIHILATED PARTICLES BETWEEN LAMBDA = 0 AND LAMBDA = 0
Info: LANGEVIN DYNAMICS ACTIVE
Info: LANGEVIN TEMPERATURE   300
Info: LANGEVIN USING BBK INTEGRATOR
Info: LANGEVIN DAMPING COEFFICIENT IS 1 INVERSE PS
Info: LANGEVIN DYNAMICS APPLIED TO HYDROGENS
Info: LANGEVIN PISTON PRESSURE CONTROL ACTIVE
Info:        TARGET PRESSURE IS 1.01325 BAR
Info:     OSCILLATION PERIOD IS 50 FS
Info:             DECAY TIME IS 25 FS
Info:     PISTON TEMPERATURE IS 300 K
Info:       PRESSURE CONTROL IS GROUP-BASED
Info:    INITIAL STRAIN RATE IS -0.000260082 -0.000260082 -0.000260082
Info:       CELL FLUCTUATION IS ISOTROPIC
Info: PARTICLE MESH EWALD (PME) ACTIVE
Info: PME TOLERANCE               1e-06
Info: PME EWALD COEFFICIENT       0.348832
Info: PME INTERPOLATION ORDER     4
Info: PME GRID DIMENSIONS         32 36 32
Info: PME MAXIMUM GRID SPACING    1
Info: PME CALCULATION WILL BE PERFORMED ON GPU
Info: FULL ELECTROSTATIC EVALUATION FREQUENCY      2
Info: USING VERLET I (r-RESPA) MTS SCHEME.
Info: C1 SPLITTING OF LONG RANGE ELECTROSTATICS
Info: PLACING ATOMS IN PATCHES BY HYDROGEN GROUPS
Info: RIGID BONDS TO HYDROGEN : ALL
Info:         ERROR TOLERANCE : 1e-08
Info:          MAX ITERATIONS : 100
Info: RIGID WATER USING SETTLE ALGORITHM
Info: RANDOM NUMBER SEED     1744099375
Info: USE HYDROGEN BONDS?    NO
Info: Using AMBER format force field!
Info: AMBER PARM FILE        mobley_2725215.prmtop
Info: COORDINATE PDB         mobley_2725215.pdb
Info: Exclusions will be read from PARM file!
Info: SCNB (VDW SCALING)     2
Info: USING ARITHMETIC MEAN TO COMBINE L-J SIGMA PARAMETERS
Info: BINARY COORDINATES     mobley_2725215_equil.coor
Info: SUMMARY OF PARAMETERS:
Info: 14 BONDS
Info: 21 ANGLES
Info:   21 HARMONIC
Info:   0 COSINE-BASED
Info: 10 DIHEDRAL
Info: 0 IMPROPER
Info: 0 CROSSTERM
Info: 0 VDW
Info: 55 VDW_PAIRS
Info: 0 NBTHOLE_PAIRS
Info: To read alchdata from file: mobley_2725215.pdb
Info: To read alchflag data from column: 5
Info: STRUCTURE SUMMARY:
Info: 2937 ATOMS
Info: 2937 BONDS
Info: 75 ANGLES
Info: 106 DIHEDRALS
Info: 0 IMPROPERS
Info: 0 CROSSTERMS
Info: 3108 EXCLUSIONS
Info: 2914 RIGID BONDS
Info: ALCH: 0 ATOMS TO DISAPPEAR IN FINAL STATE
Info: ALCH: 42 ATOMS TO APPEAR IN FINAL STATE
Info: 5897 DEGREES OF FREEDOM
Info: 988 HYDROGEN GROUPS
Info: 4 ATOMS IN LARGEST HYDROGEN GROUP
Info: 988 MIGRATION GROUPS
Info: 4 ATOMS IN LARGEST MIGRATION GROUP
Info: TOTAL MASS = 17730.8 amu
Info: TOTAL CHARGE = 8.19564e-08 e
Info: MASS DENSITY = 0.972875 g/cm^3
Info: ATOM DENSITY = 0.097045 atoms/A^3
Info: ADDED 0 IMPLICIT EXCLUSIONS
Info: NONBONDED TABLE R-SQUARED SPACING: 0.0625
Info: NONBONDED TABLE SIZE: 705 POINTS
Info: REMOVING COM VELOCITY 0.174478 -0.0143555 0.104715
Info: Use 3D box decompostion in PME FFT.
Info: Updated CUDA force table with 4096 elements.
Info: Updated CUDA LJ table with 10 x 10 elements.
Info: Found 43 unique exclusion lists needing 240 bytes
TCL: Running for 1500000 steps
ETITLE: TS BOND ANGLE DIHED IMPRP ELECT VDW BOUNDARY MISC KINETIC TOTAL TEMP POTENTIAL TOTALAVG TEMPAVG PRESSURE GPRESSURE VOLUME PRESSAVG GPRESSAVG
ENERGY: 0 6.6875 13.6037 27.0087 0.0000 -10683.3367 1475.1123 0.0000 0.0000 1745.9343 -7414.9902 297.9800 -9160.9245 -7414.9902 297.9800 686.1689 755.2980 30264.3141 686.1689 755.2980
ENERGY: 300000 7.6348 21.4492 29.2591 0.0000 -10777.9155 1526.3920 0.0000 0.0000 1782.0541 -7411.1263 304.1446 -9193.1804 -7419.5975 302.8708 1717.6893 1764.1298 29509.8570 694.1852 726.5873
ENERGY: 600000 5.6482 17.4158 28.7353 0.0000 -10478.2920 1303.2926 0.0000 0.0000 1780.5212 -7342.6788 303.8830 -9123.2001 -7409.4094 301.8514 -366.7404 -342.0611 30171.9579 210.3233 252.4901
ENERGY: 900000 7.4299 17.6293 26.0068 0.0000 -10601.4595 1366.9611 0.0000 0.0000 1753.6871 -7429.7453 299.3032 -9183.4325 -7426.0424 300.3237 -269.3809 -178.4026 30225.9025 101.7060 149.7225
ENERGY: 1200000 6.9254 14.2843 27.4776 0.0000 -10719.5468 1467.3451 0.0000 0.0000 1751.2261 -7452.2884 298.8832 -9203.5144 -7418.1895 301.1433 700.0917 807.2773 29991.6744 215.8506 269.2005
ENERGY: 1500000 4.6380 14.9441 26.1559 0.0000 -10605.4577 1344.8949 0.0000 0.0000 1727.9073 -7486.9174 294.9033 -9214.8247 -7423.8391 300.4940 -167.3694 -134.4635 29910.2840 151.8316 202.3184
TCL: Running FEP window   2: Lambda1 0.95   Lambda2 0.8999999999999999 [dLambda -0.050000000000000044]
TCL: Setting parameter firsttimestep to 0
TCL: Setting parameter alchLambda to 0.95
Info: NONBONDED TABLE R-SQUARED SPACING: 0.0625
Info: NONBONDED TABLE SIZE: 705 POINTS
TCL: Setting parameter alchLambda2 to 0.8999999999999999
Info: NONBONDED TABLE R-SQUARED SPACING: 0.0625
Info: NONBONDED TABLE SIZE: 705 POINTS
TCL: Running for 1500000 steps
ETITLE: TS BOND ANGLE DIHED IMPRP ELECT VDW BOUNDARY MISC KINETIC TOTAL TEMP POTENTIAL TOTALAVG TEMPAVG PRESSURE GPRESSURE VOLUME PRESSAVG GPRESSAVG
ENERGY: 0 4.6380 14.9441 26.1559 0.0000 -10602.8777 1344.4202 0.0000 0.0000 1727.0103 -7485.7092 294.7503 -9212.7195 -7485.7092 294.7503 -239.1046 -160.5423 29910.2840 -239.1046 -160.5423
ENERGY: 300000 6.3248 19.8088 27.3479 0.0000 -10700.3589 1413.5933 0.0000 0.0000 1719.5651 -7513.7190 293.4796 -9233.2841 -7523.0388 294.1882 192.7513 211.4616 29954.4906 164.8883 244.4419
ENERGY: 600000 7.4616 15.4857 25.9663 0.0000 -10617.1839 1378.5626 0.0000 0.0000 1759.9162 -7429.7915 300.3663 -9189.7077 -7488.9020 295.8530 34.8845 73.8009 30248.5185 -3.4305 60.9306
ENERGY: 900000 8.6448 17.3188 27.6145 0.0000 -10569.8554 1402.8528 0.0000 0.0000 1754.2249 -7359.1996 299.3950 -9113.4245 -7468.3296 297.0207 -94.4628 5.0318 30311.8538 108.3361 179.2100
ENERGY: 1200000 6.9501 18.4183 24.4839 0.0000 -10402.3816 1222.5185 0.0000 0.0000 1730.2219 -7399.7890 295.2984 -9130.0109 -7449.7039 298.4465 -1419.1961 -1309.0420 30489.0607 -34.4563 38.5846
ENERGY: 1500000 6.6482 25.4984 26.5304 0.0000 -10694.3491 1420.4867 0.0000 0.0000 1745.1858 -7469.9995 297.8523 -9215.1853 -7445.2339 299.0397 -67.3047 -0.0938 30452.9208 -38.4674 27.2965
TCL: Running FEP window   3: Lambda1 0.8999999999999999 Lambda2 0.8499999999999999 [dLambda -0.050000000000000044]
TCL: Setting parameter firsttimestep to 0
TCL: Setting parameter alchLambda to 0.8999999999999999
Info: NONBONDED TABLE R-SQUARED SPACING: 0.0625
Info: NONBONDED TABLE SIZE: 705 POINTS
TCL: Setting parameter alchLambda2 to 0.8499999999999999
Info: NONBONDED TABLE R-SQUARED SPACING: 0.0625
Info: NONBONDED TABLE SIZE: 705 POINTS
TCL: Running for 1500000 steps
ETITLE: TS BOND ANGLE DIHED IMPRP ELECT VDW BOUNDARY MISC KINETIC TOTAL TEMP POTENTIAL TOTALAVG TEMPAVG PRESSURE GPRESSURE VOLUME PRESSAVG GPRESSAVG
ENERGY: 0 6.6482 25.4984 26.5304 0.0000 -10691.5599 1420.8377 0.0000 0.0000 1744.3115 -7467.7338 297.7031 -9212.0452 -7467.7338 297.7031 -109.3524 -22.2309 30452.9208 -109.3524 -22.2309
ENERGY: 300000 6.3779 13.2349 29.5708 0.0000 -10696.6212 1422.9312 0.0000 0.0000 1735.5507 -7488.9556 296.2079 -9224.5063 -7456.9928 298.6360 409.8551 511.1122 29803.0658 -208.9919 -150.6792
ENERGY: 600000 7.3064 16.7294 29.0255 0.0000 -10612.0824 1361.9415 0.0000 0.0000 1684.6786 -7512.4010 287.5255 -9197.0796 -7444.3618 298.4038 -548.8445 -546.7548 30474.8590 -250.2423 -197.3976
ENERGY: 900000 8.5642 17.2265 27.6664 0.0000 -10693.8411 1382.7822 0.0000 0.0000 1720.9689 -7536.6329 293.7192 -9257.6018 -7442.5816 299.0434 -76.6546 73.2022 29578.6385 -240.2399 -169.9833
ENERGY: 1200000 9.1016 21.7148 25.5995 0.0000 -10581.0996 1397.9891 0.0000 0.0000 1745.2523 -7381.4424 297.8636 -9126.6947 -7434.2040 299.5525 60.6182 114.3281 30545.5992 -124.8874 -64.1615
ENERGY: 1500000 8.7834 20.6146 29.5286 0.0000 -10593.5505 1389.9945 0.0000 0.0000 1781.9534 -7362.6759 304.1274 -9144.6293 -7427.5655 299.5851 -157.1258 -41.6489 30615.6729 -153.3074 -87.1155
TCL: Running FEP window   4: Lambda1 0.8499999999999999 Lambda2 0.7999999999999998 [dLambda -0.050000000000000044]
TCL: Setting parameter firsttimestep to 0
TCL: Setting parameter alchLambda to 0.8499999999999999
Info: NONBONDED TABLE R-SQUARED SPACING: 0.0625
Info: NONBONDED TABLE SIZE: 705 POINTS
TCL: Setting parameter alchLambda2 to 0.7999999999999998
Info: NONBONDED TABLE R-SQUARED SPACING: 0.0625
Info: NONBONDED TABLE SIZE: 705 POINTS
TCL: Running for 1500000 steps
ETITLE: TS BOND ANGLE DIHED IMPRP ELECT VDW BOUNDARY MISC KINETIC TOTAL TEMP POTENTIAL TOTALAVG TEMPAVG PRESSURE GPRESSURE VOLUME PRESSAVG GPRESSAVG
ENERGY: 0 8.7834 20.6146 29.5286 0.0000 -10591.1554 1390.5233 0.0000 0.0000 1781.0816 -7360.6239 303.9786 -9141.7055 -7360.6239 303.9786 -134.3225 -51.5601 30615.6729 -134.3225 -51.5601
ENERGY: 300000 12.0538 14.7903 27.1603 0.0000 -10705.6265 1469.4702 0.0000 0.0000 1833.2851 -7348.8668 312.8883 -9182.1519 -7410.6406 303.1957 829.0288 896.7765 29812.3198 162.0372 259.0482
ENERGY: 600000 8.8896 20.0007 26.4235 0.0000 -10721.2638 1393.2335 0.0000 0.0000 1755.1533 -7517.5633 299.5534 -9272.7166 -7432.7083 302.3114 -297.1437 -190.6967 29807.2151 234.9691 309.5197
ENERGY: 900000 6.8866 19.8650 26.5704 0.0000 -10805.9152 1488.0082 0.0000 0.0000 1751.0378 -7513.5473 298.8510 -9264.5850 -7438.4387 302.3082 107.8357 281.2206 30131.7603 115.3997 201.5717
ENERGY: 1200000 8.2787 22.9592 28.3540 0.0000 -10649.0493 1362.9524 0.0000 0.0000 1787.7170 -7438.7881 305.1111 -9226.5051 -7446.5335 301.8278 -452.6064 -386.9053 30032.2957 -2.4603 84.4445
ENERGY: 1500000 5.5714 21.8248 24.4220 0.0000 -10523.7253 1361.4873 0.0000 0.0000 1726.8507 -7383.5691 294.7230 -9110.4198 -7438.0087 300.7997 -317.1743 -314.2128 30715.6488 -46.3916 29.0766
TCL: Running FEP window   5: Lambda1 0.7999999999999998 Lambda2 0.7499999999999998 [dLambda -0.050000000000000044]
TCL: Setting parameter firsttimestep to 0
TCL: Setting parameter alchLambda to 0.7999999999999998
Info: NONBONDED TABLE R-SQUARED SPACING: 0.0625
Info: NONBONDED TABLE SIZE: 705 POINTS
TCL: Setting parameter alchLambda2 to 0.7499999999999998
Info: NONBONDED TABLE R-SQUARED SPACING: 0.0625
Info: NONBONDED TABLE SIZE: 705 POINTS
TCL: Running for 1500000 steps
ETITLE: TS BOND ANGLE DIHED IMPRP ELECT VDW BOUNDARY MISC KINETIC TOTAL TEMP POTENTIAL TOTALAVG TEMPAVG PRESSURE GPRESSURE VOLUME PRESSAVG GPRESSAVG
ENERGY: 0 5.5715 21.8248 24.4220 0.0000 -10522.3706 1362.4098 0.0000 0.0000 1725.9936 -7382.1490 294.5767 -9108.1426 -7382.1490 294.5767 -410.1232 -325.1432 30715.6488 -410.1232 -325.1432
ENERGY: 300000 4.1924 22.0715 31.0727 0.0000 -10620.5958 1396.0266 0.0000 0.0000 1809.6250 -7357.6077 308.8502 -9167.2327 -7419.7025 300.7197 22.7193 74.0319 30041.3614 -449.1648 -363.8389
ENERGY: 600000 7.8751 24.3030 25.5383 0.0000 -10550.8587 1302.0813 0.0000 0.0000 1791.9060 -7399.1549 305.8261 -9191.0609 -7430.4250 297.9896 -565.0388 -469.3392 29706.2796 -377.4800 -294.8662
ENERGY: 900000 7.9311 20.9466 28.5237 0.0000 -10657.2138 1436.6525 0.0000 0.0000 1786.8579 -7376.3021 304.9645 -9163.1600 -7438.2398 298.3168 432.8312 464.5397 30076.8753 -299.8467 -222.8122
ENERGY: 1200000 5.4700 21.6706 26.4924 0.0000 -10654.7297 1437.6792 0.0000 0.0000 1771.4698 -7391.9477 302.3382 -9163.4175 -7427.1618 299.5572 366.2703 394.9575 29881.9400 -130.5774 -59.0127
ENERGY: 1500000 11.1845 15.9190 28.7901 0.0000 -10508.3957 1366.6928 0.0000 0.0000 1808.7543 -7277.0550 308.7016 -9085.8093 -7416.0304 300.2728 -45.2769 -45.6000 30692.9734 -82.7326 -13.9980
TCL: Running FEP window   6: Lambda1 0.7499999999999998 Lambda2 0.6999999999999997 [dLambda -0.050000000000000044]
TCL: Setting parameter firsttimestep to 0
TCL: Setting parameter alchLambda to 0.7499999999999998
Info: NONBONDED TABLE R-SQUARED SPACING: 0.0625
Info: NONBONDED TABLE SIZE: 705 POINTS
TCL: Setting parameter alchLambda2 to 0.6999999999999997
Info: NONBONDED TABLE R-SQUARED SPACING: 0.0625
Info: NONBONDED TABLE SIZE: 705 POINTS
TCL: Running for 1500000 steps
ETITLE: TS BOND ANGLE DIHED IMPRP ELECT VDW BOUNDARY MISC KINETIC TOTAL TEMP POTENTIAL TOTALAVG TEMPAVG PRESSURE GPRESSURE VOLUME PRESSAVG GPRESSAVG
ENERGY: 0 11.1845 15.9190 28.7901 0.0000 -10506.3517 1366.3451 0.0000 0.0000 1807.8714 -7276.2415 308.5509 -9084.1130 -7276.2415 308.5509 -157.1160 -73.1697 30692.9734 -157.1160 -73.1697
ENERGY: 300000 6.7257 18.1061 29.0746 0.0000 -10490.6683 1329.3501 0.0000 0.0000 1761.2016 -7346.2103 300.5857 -9107.4118 -7356.8571 303.4503 -752.8660 -706.1865 30708.9338 178.5382 226.4486
ENERGY: 600000 8.2889 17.6619 32.0756 0.0000 -10459.2621 1338.9310 0.0000 0.0000 1742.1815 -7320.1231 297.3395 -9062.3046 -7373.3650 301.3200 -436.5016 -375.9491 30828.2007 186.1529 241.6178
ENERGY: 900000 10.9439 21.2110 26.8426 0.0000 -10728.7031 1436.1819 0.0000 0.0000 1743.7124 -7489.8114 297.6008 -9233.5238 -7402.3467 300.9296 -229.1596 -190.7836 29882.6822 136.6440 188.6697
ENERGY: 1200000 7.3088 17.9500 25.1053 0.0000 -10536.8422 1337.7236 0.0000 0.0000 1813.4420 -7335.3125 309.5016 -9148.7545 -7387.6124 301.1891 -688.9567 -616.5721 30529.9105 53.7635 109.5585
ENERGY: 1500000 5.0042 19.5031 26.9727 0.0000 -10687.1528 1408.2611 0.0000 0.0000 1765.8835 -7461.5281 301.3848 -9227.4116 -7393.5408 300.8075 -343.9318 -240.2185 30394.8526 -41.6571 25.2341
TCL: Running FEP window   7: Lambda1 0.6999999999999997 Lambda2 0.6499999999999997 [dLambda -0.050000000000000044]
TCL: Setting parameter firsttimestep to 0
TCL: Setting parameter alchLambda to 0.6999999999999997
Info: NONBONDED TABLE R-SQUARED SPACING: 0.0625
Info: NONBONDED TABLE SIZE: 705 POINTS
TCL: Setting parameter alchLambda2 to 0.6499999999999997
Info: NONBONDED TABLE R-SQUARED SPACING: 0.0625
Info: NONBONDED TABLE SIZE: 705 POINTS
TCL: Running for 1500000 steps
ETITLE: TS BOND ANGLE DIHED IMPRP ELECT VDW BOUNDARY MISC KINETIC TOTAL TEMP POTENTIAL TOTALAVG TEMPAVG PRESSURE GPRESSURE VOLUME PRESSAVG GPRESSAVG
ENERGY: 0 5.0042 19.5031 26.9727 0.0000 -10685.4290 1408.3197 0.0000 0.0000 1765.0329 -7460.5963 301.2396 -9225.6292 -7460.5963 301.2396 -339.3517 -260.2493 30394.8526 -339.3517 -260.2493
ENERGY: 300000 7.2725 21.5768 26.1615 0.0000 -10601.5981 1377.0773 0.0000 0.0000 1782.9456 -7386.5645 304.2968 -9169.5101 -7396.7111 300.6803 -9.6327 15.4942 29975.0577 -32.4248 22.5935
ENERGY: 600000 7.5168 16.2132 26.0998 0.0000 -10475.8183 1298.3450 0.0000 0.0000 1804.0935 -7323.5500 307.9061 -9127.6435 -7395.0067 303.4592 -759.6855 -632.9670 30304.1180 -92.8880 -18.9529
ENERGY: 900000 8.3553 19.9543 26.1988 0.0000 -10634.5567 1452.6578 0.0000 0.0000 1778.6248 -7348.7657 303.5593 -9127.3905 -7397.6914 303.0009 615.4985 685.0053 30274.0704 2.7916 72.0368
ENERGY: 1200000 7.7503 18.7743 24.2928 0.0000 -10694.0016 1477.4496 0.0000 0.0000 1788.1794 -7377.5552 305.1900 -9165.7346 -7400.3138 303.2379 696.4420 754.2381 30001.0836 115.2932 175.2449
ENERGY: 1500000 5.6833 18.2139 25.1872 0.0000 -10692.5757 1416.6906 0.0000 0.0000 1768.5345 -7458.2662 301.8372 -9226.8007 -7398.0322 303.2596 -93.8748 -99.7558 30428.5790 92.7712 144.7884
TCL: Running FEP window   8: Lambda1 0.6499999999999997 Lambda2 0.5999999999999996 [dLambda -0.050000000000000044]
TCL: Setting parameter firsttimestep to 0
TCL: Setting parameter alchLambda to 0.6499999999999997
Info: NONBONDED TABLE R-SQUARED SPACING: 0.0625
Info: NONBONDED TABLE SIZE: 705 POINTS
TCL: Setting parameter alchLambda2 to 0.5999999999999996
Info: NONBONDED TABLE R-SQUARED SPACING: 0.0625
Info: NONBONDED TABLE SIZE: 705 POINTS
TCL: Running for 1500000 steps
ETITLE: TS BOND ANGLE DIHED IMPRP ELECT VDW BOUNDARY MISC KINETIC TOTAL TEMP POTENTIAL TOTALAVG TEMPAVG PRESSURE GPRESSURE VOLUME PRESSAVG GPRESSAVG
ENERGY: 0 5.6833 18.2139 25.1872 0.0000 -10691.3761 1416.7457 0.0000 0.0000 1767.6816 -7457.8644 301.6917 -9225.5460 -7457.8644 301.6917 -186.8065 -118.0455 30428.5790 -186.8065 -118.0455
ENERGY: 300000 14.2825 16.9603 26.5144 0.0000 -10746.2555 1458.6463 0.0000 0.0000 1738.9579 -7490.8941 296.7894 -9229.8520 -7445.1069 299.1389 459.6419 505.9501 29675.4324 194.3213 252.7711
ENERGY: 600000 5.0700 20.6759 24.9038 0.0000 -10632.7367 1414.5885 0.0000 0.0000 1817.3717 -7350.1268 310.1723 -9167.4984 -7418.9550 300.0982 215.8978 258.7850 30150.8923 187.5543 239.9293
ENERGY: 900000 8.9290 19.2774 29.7500 0.0000 -10711.1980 1511.2418 0.0000 0.0000 1751.1921 -7390.8076 298.8774 -9141.9997 -7412.4104 300.3774 750.3465 866.3802 29990.2439 165.8224 225.3751
ENERGY: 1200000 4.9491 17.1152 25.3354 0.0000 -10684.5422 1466.7665 0.0000 0.0000 1772.7715 -7397.6044 302.5604 -9170.3760 -7408.0327 301.2230 545.3482 599.6294 30062.9767 144.7861 208.5619
ENERGY: 1500000 9.2190 21.6330 25.7330 0.0000 -10581.8807 1352.3157 0.0000 0.0000 1738.1574 -7434.8226 296.6527 -9172.9800 -7416.9836 300.3897 -610.3466 -479.7706 30344.6717 13.6270 80.9355
TCL: Running FEP window   9: Lambda1 0.5999999999999996 Lambda2 0.5499999999999996 [dLambda -0.050000000000000044]
TCL: Setting parameter firsttimestep to 0
TCL: Setting parameter alchLambda to 0.5999999999999996
Info: NONBONDED TABLE R-SQUARED SPACING: 0.0625
Info: NONBONDED TABLE SIZE: 705 POINTS
TCL: Setting parameter alchLambda2 to 0.5499999999999996
Info: NONBONDED TABLE R-SQUARED SPACING: 0.0625
Info: NONBONDED TABLE SIZE: 705 POINTS
TCL: Running for 1500000 steps
ETITLE: TS BOND ANGLE DIHED IMPRP ELECT VDW BOUNDARY MISC KINETIC TOTAL TEMP POTENTIAL TOTALAVG TEMPAVG PRESSURE GPRESSURE VOLUME PRESSAVG GPRESSAVG
ENERGY: 0 9.2190 21.6330 25.7330 0.0000 -10580.2635 1352.5237 0.0000 0.0000 1737.2768 -7433.8779 296.5024 -9171.1547 -7433.8779 296.5024 -587.6504 -495.1176 30344.6717 -587.6504 -495.1176
ENERGY: 300000 6.3001 18.4101 25.1239 0.0000 -10734.4607 1517.9560 0.0000 0.0000 1768.7840 -7397.8867 301.8798 -9166.6707 -7431.2611 297.6104 737.8761 855.9940 30290.2714 109.2612 202.8587
ENERGY: 600000 7.3768 18.9325 30.8507 0.0000 -10721.2805 1490.8966 0.0000 0.0000 1681.8496 -7491.3744 287.0426 -9173.2240 -7441.3849 296.1324 648.3709 650.2561 29887.2715 263.9464 324.3593
ENERGY: 900000 5.9364 13.4445 27.1523 0.0000 -10633.7836 1411.1263 0.0000 0.0000 1773.4205 -7402.7035 302.6711 -9176.1240 -7438.8502 296.8470 -476.4829 -424.5759 30990.3052 142.9312 200.5821
ENERGY: 1200000 8.8952 15.2719 29.0145 0.0000 -10716.1167 1449.0291 0.0000 0.0000 1721.6850 -7492.2211 293.8414 -9213.9061 -7441.2437 296.6970 519.0557 554.8214 29921.7977 166.6328 221.6060
ENERGY: 1500000 7.5767 20.7049 25.5572 0.0000 -10783.8145 1526.6883 0.0000 0.0000 1765.0341 -7438.2532 301.2398 -9203.2873 -7439.1018 297.2899 840.8562 991.4661 29603.0741 252.2876 313.5077
TCL: Running FEP window  10: Lambda1 0.5499999999999996 Lambda2 0.4999999999999996 [dLambda -0.04999999999999999]
TCL: Setting parameter firsttimestep to 0
TCL: Setting parameter alchLambda to 0.5499999999999996
Info: NONBONDED TABLE R-SQUARED SPACING: 0.0625
Info: NONBONDED TABLE SIZE: 705 POINTS
TCL: Setting parameter alchLambda2 to 0.4999999999999996
Info: NONBONDED TABLE R-SQUARED SPACING: 0.0625
Info: NONBONDED TABLE SIZE: 705 POINTS
TCL: Running for 1500000 steps
ETITLE: TS BOND ANGLE DIHED IMPRP ELECT VDW BOUNDARY MISC KINETIC TOTAL TEMP POTENTIAL TOTALAVG TEMPAVG PRESSURE GPRESSURE VOLUME PRESSAVG GPRESSAVG
ENERGY: 0 7.5768 20.7049 25.5572 0.0000 -10782.8124 1527.4225 0.0000 0.0000 1764.1660 -7437.3849 301.0917 -9201.5510 -7437.3849 301.0917 881.2821 984.4394 29603.0741 881.2821 984.4394
ENERGY: 300000 4.7438 22.3013 24.8671 0.0000 -10910.0411 1589.8869 0.0000 0.0000 1745.2086 -7523.0333 297.8562 -9268.2419 -7484.4150 298.7230 1487.6062 1579.7975 29273.7050 376.2189 464.9657
ENERGY: 600000 6.5276 19.1545 29.1508 0.0000 -10763.1264 1495.8736 0.0000 0.0000 1715.7503 -7496.6696 292.8285 -9212.4199 -7469.9675 298.8114 632.3572 692.4071 29958.0369 315.8530 385.6302
ENERGY: 900000 9.3621 14.6565 27.3828 0.0000 -10662.9162 1404.8201 0.0000 0.0000 1717.6395 -7489.0553 293.1509 -9206.6948 -7472.1138 297.8058 27.5117 60.7148 29637.4215 311.7542 369.6812
ENERGY: 1200000 7.3041 17.2979 28.3966 0.0000 -10619.9582 1424.5094 0.0000 0.0000 1771.5614 -7370.8888 302.3538 -9142.4502 -7448.7937 298.8494 497.2898 577.5625 29685.2636 275.2194 339.9094
ENERGY: 1500000 7.1868 13.1733 28.8550 0.0000 -10506.1758 1320.0926 0.0000 0.0000 1777.4846 -7359.3835 303.3647 -9136.8681 -7434.2972 300.0854 -736.2324 -643.4195 30198.8070 112.9214 185.6127
TCL: Running FEP window  11: Lambda1 0.4999999999999996 Lambda2 0.4499999999999996 [dLambda -0.04999999999999999]
TCL: Setting parameter firsttimestep to 0
TCL: Setting parameter alchLambda to 0.4999999999999996
Info: NONBONDED TABLE R-SQUARED SPACING: 0.0625
Info: NONBONDED TABLE SIZE: 705 POINTS
TCL: Setting parameter alchLambda2 to 0.4499999999999996
Info: NONBONDED TABLE R-SQUARED SPACING: 0.0625
Info: NONBONDED TABLE SIZE: 705 POINTS
TCL: Running for 1500000 steps
ETITLE: TS BOND ANGLE DIHED IMPRP ELECT VDW BOUNDARY MISC KINETIC TOTAL TEMP POTENTIAL TOTALAVG TEMPAVG PRESSURE GPRESSURE VOLUME PRESSAVG GPRESSAVG
ENERGY: 0 7.1868 13.1733 28.8550 0.0000 -10505.3064 1320.6874 0.0000 0.0000 1776.6446 -7358.7593 303.2214 -9135.4039 -7358.7593 303.2214 -736.1842 -652.6914 30198.8070 -736.1842 -652.6914
ENERGY: 300000 12.2006 16.2889 25.7291 0.0000 -10615.5658 1400.0656 0.0000 0.0000 1805.7065 -7355.5750 308.1814 -9161.2815 -7415.0592 299.4453 408.4200 443.0716 29768.0568 -123.7033 -71.2117
ENERGY: 600000 6.2522 24.9680 23.2702 0.0000 -10721.8146 1458.9481 0.0000 0.0000 1784.4678 -7423.9084 304.5566 -9208.3761 -7393.6707 300.8447 172.5202 203.5420 30059.6347 114.4141 180.9714
ENERGY: 900000 6.7804 15.8855 24.7542 0.0000 -10613.3105 1451.6626 0.0000 0.0000 1831.0816 -7283.1462 312.5122 -9114.2279 -7390.0645 301.6843 445.7604 467.5328 30619.2870 251.1960 314.9348
ENERGY: 1200000 12.2664 18.3222 27.9409 0.0000 -10679.4026 1412.3588 0.0000 0.0000 1792.6404 -7415.8739 305.9514 -9208.5143 -7389.8644 301.5224 -442.1669 -387.7234 30149.4825 141.1130 204.2401
ENERGY: 1500000 6.4143 16.6649 28.5085 0.0000 -10628.6589 1426.3294 0.0000 0.0000 1739.7513 -7410.9904 296.9248 -9150.7418 -7386.4815 301.8051 38.9173 98.0495 29955.2834 140.3060 202.1692
TCL: Running FEP window  12: Lambda1 0.4499999999999996 Lambda2 0.39999999999999963 [dLambda -0.04999999999999999]
TCL: Setting parameter firsttimestep to 0
TCL: Setting parameter alchLambda to 0.4499999999999996
Info: NONBONDED TABLE R-SQUARED SPACING: 0.0625
Info: NONBONDED TABLE SIZE: 705 POINTS
TCL: Setting parameter alchLambda2 to 0.39999999999999963
Info: NONBONDED TABLE R-SQUARED SPACING: 0.0625
Info: NONBONDED TABLE SIZE: 705 POINTS
TCL: Running for 1500000 steps
ETITLE: TS BOND ANGLE DIHED IMPRP ELECT VDW BOUNDARY MISC KINETIC TOTAL TEMP POTENTIAL TOTALAVG TEMPAVG PRESSURE GPRESSURE VOLUME PRESSAVG GPRESSAVG
ENERGY: 0 6.4143 16.6649 28.5085 0.0000 -10628.6597 1427.6204 0.0000 0.0000 1738.8540 -7410.5976 296.7716 -9149.4517 -7410.5976 296.7716 8.9590 91.3846 29955.2834 8.9590 91.3846
ENERGY: 300000 7.5174 17.6901 27.8902 0.0000 -10568.6742 1364.7329 0.0000 0.0000 1799.9344 -7350.9092 307.1963 -9150.8436 -7411.6125 299.4733 -300.6339 -199.0429 30220.8374 -59.5398 24.0971
ENERGY: 600000 7.6646 16.1101 27.3519 0.0000 -10834.7552 1572.6824 0.0000 0.0000 1759.1444 -7451.8019 300.2346 -9210.9463 -7431.4377 297.7324 1192.4794 1280.8191 29882.1869 64.1047 136.8825
ENERGY: 900000 5.4968 14.4741 28.4770 0.0000 -10659.0050 1399.3654 0.0000 0.0000 1782.2876 -7428.9040 304.1845 -9211.1917 -7420.0901 299.0781 352.1138 344.2016 29281.2938 199.7578 268.0714
ENERGY: 1200000 5.5916 24.8727 25.2870 0.0000 -10536.5004 1377.1792 0.0000 0.0000 1777.4355 -7326.1344 303.3564 -9103.5699 -7414.0030 299.2229 72.6337 34.9299 29794.7166 194.1513 249.4630
ENERGY: 1500000 5.8515 20.3115 29.6921 0.0000 -10639.1796 1422.3876 0.0000 0.0000 1733.6349 -7427.3020 295.8809 -9160.9369 -7406.8413 299.2438 -88.3502 8.4147 30051.5660 142.9468 201.2070
TCL: Running FEP window  13: Lambda1 0.39999999999999963 Lambda2 0.34999999999999964 [dLambda -0.04999999999999999]
TCL: Setting parameter firsttimestep to 0
TCL: Setting parameter alchLambda to 0.39999999999999963
Info: NONBONDED TABLE R-SQUARED SPACING: 0.0625
Info: NONBONDED TABLE SIZE: 705 POINTS
TCL: Setting parameter alchLambda2 to 0.34999999999999964
Info: NONBONDED TABLE R-SQUARED SPACING: 0.0625
Info: NONBONDED TABLE SIZE: 705 POINTS
TCL: Running for 1500000 steps
ETITLE: TS BOND ANGLE DIHED IMPRP ELECT VDW BOUNDARY MISC KINETIC TOTAL TEMP POTENTIAL TOTALAVG TEMPAVG PRESSURE GPRESSURE VOLUME PRESSAVG GPRESSAVG
ENERGY: 0 5.8515 20.3116 29.6921 0.0000 -10639.1790 1422.8332 0.0000 0.0000 1732.7663 -7427.7243 295.7326 -9160.4906 -7427.7243 295.7326 -98.4776 -1.0225 30051.5660 -98.4776 -1.0225
ENERGY: 300000 7.6894 24.0241 26.7422 0.0000 -10535.1771 1287.9122 0.0000 0.0000 1785.7058 -7403.1034 304.7679 -9188.8092 -7429.7102 297.3767 -1404.5568 -1251.3123 30345.0643 -704.2990 -601.4075
ENERGY: 600000 5.7866 13.5450 26.5728 0.0000 -10641.9029 1422.4379 0.0000 0.0000 1786.2277 -7387.3329 304.8569 -9173.5606 -7410.7010 297.9881 163.8555 239.1965 29665.2600 -672.4391 -580.1592
ENERGY: 900000 17.4743 16.7848 25.6067 0.0000 -10620.6284 1416.1138 0.0000 0.0000 1760.9015 -7383.7472 300.5345 -9144.6488 -7390.1950 299.0883 -341.6750 -297.5699 30476.5976 -372.9429 -296.8507
ENERGY: 1200000 7.9007 22.9871 26.2814 0.0000 -10468.4522 1372.9904 0.0000 0.0000 1781.2360 -7257.0566 304.0050 -9038.2926 -7379.1421 300.3903 -43.1378 47.2213 30664.9865 -264.8638 -189.7772
ENERGY: 1500000 12.3186 14.1796 25.1396 0.0000 -10603.4713 1402.0776 0.0000 0.0000 1710.5371 -7439.2188 291.9388 -9149.7559 -7386.2541 300.1783 -254.3611 -174.1800 30300.1613 -246.5278 -171.0732
TCL: Running FEP window  14: Lambda1 0.34999999999999964 Lambda2 0.29999999999999966 [dLambda -0.04999999999999999]
TCL: Setting parameter firsttimestep to 0
TCL: Setting parameter alchLambda to 0.34999999999999964
Info: NONBONDED TABLE R-SQUARED SPACING: 0.0625
Info: NONBONDED TABLE SIZE: 705 POINTS
TCL: Setting parameter alchLambda2 to 0.29999999999999966
Info: NONBONDED TABLE R-SQUARED SPACING: 0.0625
Info: NONBONDED TABLE SIZE: 705 POINTS
TCL: Running for 1500000 steps
ETITLE: TS BOND ANGLE DIHED IMPRP ELECT VDW BOUNDARY MISC KINETIC TOTAL TEMP POTENTIAL TOTALAVG TEMPAVG PRESSURE GPRESSURE VOLUME PRESSAVG GPRESSAVG
ENERGY: 0 12.3186 14.1796 25.1396 0.0000 -10603.4712 1402.5186 0.0000 0.0000 1709.7020 -7439.6128 291.7962 -9149.3148 -7439.6128 291.7962 -270.6838 -184.6506 30300.1613 -270.6838 -184.6506
ENERGY: 300000 8.5826 25.5782 25.7601 0.0000 -10624.0333 1424.6292 0.0000 0.0000 1705.8967 -7433.5867 291.1468 -9139.4834 -7409.6504 298.9863 -141.7645 -77.0263 30646.4741 210.7016 277.5508
ENERGY: 600000 7.2633 16.3986 28.3166 0.0000 -10577.9332 1398.0521 0.0000 0.0000 1704.6122 -7423.2904 290.9276 -9127.9026 -7434.3752 296.8534 -188.5528 -50.3219 30185.1368 131.4975 199.5988
ENERGY: 900000 5.2705 25.5287 24.3766 0.0000 -10722.0672 1453.0453 0.0000 0.0000 1813.2330 -7400.6131 309.4660 -9213.8461 -7416.6795 299.0348 210.1086 267.3020 29912.3226 192.9242 255.6500
ENERGY: 1200000 12.3661 18.7949 29.4665 0.0000 -10731.1948 1461.5895 0.0000 0.0000 1712.9430 -7496.0348 292.3494 -9208.9778 -7435.9736 298.7976 222.5488 266.7355 30234.8478 237.1928 300.9394
ENERGY: 1500000 9.6993 17.7594 25.3108 0.0000 -10699.1138 1455.5713 0.0000 0.0000 1716.9202 -7473.8526 293.0282 -9190.7729 -7429.5349 298.7524 195.5291 232.3509 30014.4325 106.8481 167.9433
TCL: Running FEP window  15: Lambda1 0.29999999999999966 Lambda2 0.24999999999999967 [dLambda -0.04999999999999999]
TCL: Setting parameter firsttimestep to 0
TCL: Setting parameter alchLambda to 0.29999999999999966
Info: NONBONDED TABLE R-SQUARED SPACING: 0.0625
Info: NONBONDED TABLE SIZE: 705 POINTS
TCL: Setting parameter alchLambda2 to 0.24999999999999967
Info: NONBONDED TABLE R-SQUARED SPACING: 0.0625
Info: NONBONDED TABLE SIZE: 705 POINTS
TCL: Running for 1500000 steps
ETITLE: TS BOND ANGLE DIHED IMPRP ELECT VDW BOUNDARY MISC KINETIC TOTAL TEMP POTENTIAL TOTALAVG TEMPAVG PRESSURE GPRESSURE VOLUME PRESSAVG GPRESSAVG
ENERGY: 0 9.6993 17.7594 25.3108 0.0000 -10699.1128 1456.0479 0.0000 0.0000 1716.0924 -7474.2029 292.8869 -9190.2954 -7474.2029 292.8869 139.5652 225.3462 30014.4325 139.5652 225.3462
ENERGY: 300000 4.7847 16.9605 24.7119 0.0000 -10613.6590 1382.3819 0.0000 0.0000 1773.8579 -7410.9621 302.7458 -9184.8200 -7444.1730 297.9448 -281.7068 -223.5051 29874.3774 -10.8835 34.9386
ENERGY: 600000 6.2135 19.0774 32.0673 0.0000 -10578.7715 1477.0403 0.0000 0.0000 1731.3712 -7313.0018 295.4945 -9044.3731 -7416.8139 297.4537 711.1490 806.0451 30011.3245 71.9641 126.3324
ENERGY: 900000 11.5903 13.5194 27.6829 0.0000 -10654.9648 1402.3463 0.0000 0.0000 1732.6581 -7467.1678 295.7142 -9199.8259 -7426.6603 297.2006 -171.8989 -25.3863 30021.2898 -116.5483 -45.2345
ENERGY: 1200000 7.5582 23.1991 25.2665 0.0000 -10819.9813 1483.7872 0.0000 0.0000 1765.8731 -7514.2973 301.3830 -9280.1703 -7427.0771 297.8692 525.7662 520.4617 29611.6450 13.5988 80.9213
ENERGY: 1500000 8.8373 17.2796 24.9673 0.0000 -10563.6597 1348.1147 0.0000 0.0000 1739.9185 -7424.5423 296.9533 -9164.4608 -7424.0873 298.5891 -499.6360 -404.1224 30190.4429 -53.8829 12.7001
TCL: Running FEP window  16: Lambda1 0.24999999999999967 Lambda2 0.19999999999999968 [dLambda -0.04999999999999999]
TCL: Setting parameter firsttimestep to 0
TCL: Setting parameter alchLambda to 0.24999999999999967
Info: NONBONDED TABLE R-SQUARED SPACING: 0.0625
Info: NONBONDED TABLE SIZE: 705 POINTS
TCL: Setting parameter alchLambda2 to 0.19999999999999968
Info: NONBONDED TABLE R-SQUARED SPACING: 0.0625
Info: NONBONDED TABLE SIZE: 705 POINTS
TCL: Running for 1500000 steps
ETITLE: TS BOND ANGLE DIHED IMPRP ELECT VDW BOUNDARY MISC KINETIC TOTAL TEMP POTENTIAL TOTALAVG TEMPAVG PRESSURE GPRESSURE VOLUME PRESSAVG GPRESSAVG
ENERGY: 0 8.8373 17.2796 24.9673 0.0000 -10563.6584 1348.4767 0.0000 0.0000 1739.0270 -7425.0705 296.8012 -9164.0975 -7425.0705 296.8012 -499.4307 -411.5160 30190.4429 -499.4307 -411.5160
ENERGY: 300000 11.1384 16.2266 28.8319 0.0000 -10615.1401 1405.6917 0.0000 0.0000 1798.1953 -7355.0562 306.8995 -9153.2515 -7385.5432 297.0379 -148.0100 -40.7314 30022.5957 -586.1411 -492.1395
ENERGY: 600000 7.7249 22.5542 25.8515 0.0000 -10675.8782 1392.3377 0.0000 0.0000 1712.1145 -7515.2953 292.2080 -9227.4098 -7421.4592 297.7048 -509.6191 -440.2068 29989.0319 -638.8754 -561.4335
ENERGY: 900000 4.5127 17.6352 25.6278 0.0000 -10582.4027 1363.3489 0.0000 0.0000 1701.1031 -7470.1751 290.3286 -9171.2781 -7432.7681 295.8408 -718.5199 -655.6965 30295.3241 -511.7669 -430.2028
ENERGY: 1200000 6.7318 13.7452 27.5280 0.0000 -10703.6643 1467.7548 0.0000 0.0000 1709.2459 -7478.6586 291.7184 -9187.9045 -7434.0199 295.8333 470.1289 574.2675 29441.1023 -398.9782 -321.0209
ENERGY: 1500000 7.8682 19.7608 27.4814 0.0000 -10666.1625 1414.2433 0.0000 0.0000 1755.4331 -7441.3758 299.6012 -9196.8089 -7440.2196 296.6684 -149.3059 -86.4103 30128.3797 -351.6840 -279.8788
TCL: Running FEP window  17: Lambda1 0.19999999999999968 Lambda2 0.1499999999999997 [dLambda -0.04999999999999999]
TCL: Setting parameter firsttimestep to 0
TCL: Setting parameter alchLambda to 0.19999999999999968
Info: NONBONDED TABLE R-SQUARED SPACING: 0.0625
Info: NONBONDED TABLE SIZE: 705 POINTS
TCL: Setting parameter alchLambda2 to 0.1499999999999997
Info: NONBONDED TABLE R-SQUARED SPACING: 0.0625
Info: NONBONDED TABLE SIZE: 705 POINTS
TCL: Running for 1500000 steps
ETITLE: TS BOND ANGLE DIHED IMPRP ELECT VDW BOUNDARY MISC KINETIC TOTAL TEMP POTENTIAL TOTALAVG TEMPAVG PRESSURE GPRESSURE VOLUME PRESSAVG GPRESSAVG
ENERGY: 0 7.8682 19.7608 27.4814 0.0000 -10666.1636 1415.1534 0.0000 0.0000 1754.6064 -7441.2935 299.4601 -9195.8999 -7441.2935 299.4601 -168.1062 -87.6330 30128.3797 -168.1062 -87.6330
ENERGY: 300000 5.7715 15.4395 25.8576 0.0000 -10535.7538 1388.9183 0.0000 0.0000 1730.0094 -7369.7575 295.2621 -9099.7669 -7399.6806 297.0077 -264.4824 -221.3710 30552.0677 -96.1538 -14.8369
ENERGY: 600000 5.4673 13.0405 26.4679 0.0000 -10546.1851 1375.1527 0.0000 0.0000 1742.3249 -7383.7319 297.3640 -9126.0568 -7387.3188 299.7432 -503.6728 -468.9719 30234.2693 -42.5196 34.3334
ENERGY: 900000 9.9849 13.7333 23.5575 0.0000 -10577.2292 1378.6567 0.0000 0.0000 1732.5259 -7418.7710 295.6916 -9151.2968 -7398.1977 299.4319 -119.5032 -104.7802 29898.2416 12.8853 80.4457
ENERGY: 1200000 9.4029 24.5510 26.0988 0.0000 -10582.4349 1364.0320 0.0000 0.0000 1722.5540 -7435.7962 293.9897 -9158.3502 -7393.8724 299.3107 -568.5708 -583.6486 30206.2296 -53.4413 12.4258
ENERGY: 1500000 7.4778 13.1988 31.9232 0.0000 -10713.1268 1540.7173 0.0000 0.0000 1768.3671 -7351.4426 301.8087 -9119.8097 -7402.2568 299.1074 1315.8830 1341.8720 29707.4809 59.2733 122.1166
TCL: Running FEP window  18: Lambda1 0.1499999999999997 Lambda2 0.09999999999999969 [dLambda -0.05 ]
TCL: Setting parameter firsttimestep to 0
TCL: Setting parameter alchLambda to 0.1499999999999997
Info: NONBONDED TABLE R-SQUARED SPACING: 0.0625
Info: NONBONDED TABLE SIZE: 705 POINTS
TCL: Setting parameter alchLambda2 to 0.09999999999999969
Info: NONBONDED TABLE R-SQUARED SPACING: 0.0625
Info: NONBONDED TABLE SIZE: 705 POINTS
TCL: Running for 1500000 steps
ETITLE: TS BOND ANGLE DIHED IMPRP ELECT VDW BOUNDARY MISC KINETIC TOTAL TEMP POTENTIAL TOTALAVG TEMPAVG PRESSURE GPRESSURE VOLUME PRESSAVG GPRESSAVG
ENERGY: 0 7.4778 13.1988 31.9232 0.0000 -10713.1272 1539.8859 0.0000 0.0000 1767.4935 -7353.1480 301.6596 -9120.6415 -7353.1480 301.6596 1247.0864 1331.7389 29707.4809 1247.0864 1331.7389
ENERGY: 300000 9.0491 22.6684 24.7644 0.0000 -10597.7360 1373.2002 0.0000 0.0000 1756.0918 -7411.9621 299.7136 -9168.0539 -7398.5111 298.2607 -395.8408 -342.3473 29768.3993 127.3178 176.0505
ENERGY: 600000 5.6086 22.3744 24.6748 0.0000 -10721.5589 1474.8002 0.0000 0.0000 1793.9452 -7400.1556 306.1741 -9194.1008 -7381.6609 299.9014 14.3190 50.5820 30658.6148 154.3855 208.9169
ENERGY: 900000 3.7624 17.5171 28.0486 0.0000 -10599.2547 1401.8463 0.0000 0.0000 1757.6971 -7390.3831 299.9876 -9148.0802 -7391.3691 298.5702 -327.7657 -224.0906 30139.7832 223.9308 290.5676
ENERGY: 1200000 10.8741 26.0167 28.1392 0.0000 -10561.3643 1368.9308 0.0000 0.0000 1717.6529 -7409.7506 293.1532 -9127.4035 -7404.3033 297.8897 -371.7274 -366.1255 30158.4232 48.8629 108.6390
ENERGY: 1500000 6.8633 14.6599 26.4183 0.0000 -10664.4765 1461.6810 0.0000 0.0000 1742.2940 -7412.5601 297.3587 -9154.8541 -7404.9297 298.1601 225.4190 277.1584 29943.0226 -20.2685 37.6522
TCL: Running FEP window  19: Lambda1 0.09999999999999969 Lambda2 0.049999999999999684 [dLambda -0.05 ]
TCL: Setting parameter firsttimestep to 0
TCL: Setting parameter alchLambda to 0.09999999999999969
Info: NONBONDED TABLE R-SQUARED SPACING: 0.0625
Info: NONBONDED TABLE SIZE: 705 POINTS
TCL: Setting parameter alchLambda2 to 0.049999999999999684
Info: NONBONDED TABLE R-SQUARED SPACING: 0.0625
Info: NONBONDED TABLE SIZE: 705 POINTS
TCL: Running for 1500000 steps
ETITLE: TS BOND ANGLE DIHED IMPRP ELECT VDW BOUNDARY MISC KINETIC TOTAL TEMP POTENTIAL TOTALAVG TEMPAVG PRESSURE GPRESSURE VOLUME PRESSAVG GPRESSAVG
ENERGY: 0 6.8633 14.6599 26.4183 0.0000 -10664.4759 1461.2776 0.0000 0.0000 1741.4413 -7413.8155 297.2132 -9155.2568 -7413.8155 297.2132 177.5787 267.7352 29943.0226 177.5787 267.7352
ENERGY: 300000 5.9560 23.9989 22.7312 0.0000 -10531.9928 1389.4586 0.0000 0.0000 1823.0143 -7266.8338 311.1353 -9089.8481 -7365.7297 302.6755 -492.8558 -472.6156 30848.4297 -155.3743 -67.1916
ENERGY: 600000 4.9624 18.9618 26.7160 0.0000 -10796.5152 1478.2621 0.0000 0.0000 1743.1361 -7524.4768 297.5025 -9267.6129 -7427.1670 299.0408 257.8891 279.0661 29527.1622 -287.7209 -214.2071
ENERGY: 900000 11.8262 16.4578 27.9630 0.0000 -10679.6423 1472.0825 0.0000 0.0000 1760.8527 -7390.4600 300.5262 -9151.3127 -7411.1748 299.9109 141.0794 153.6392 30120.5272 -253.2440 -193.1184
ENERGY: 1200000 5.1785 11.1255 25.7650 0.0000 -10839.0254 1467.3775 0.0000 0.0000 1773.2164 -7556.3624 302.6363 -9329.5788 -7419.4576 300.9377 -38.5069 78.3761 29334.1201 -262.9895 -202.2112
ENERGY: 1500000 6.8382 23.3644 28.9976 0.0000 -10800.7721 1503.2471 0.0000 0.0000 1727.5164 -7510.8083 294.8366 -9238.3248 -7425.4780 299.8146 399.6317 488.1231 29948.2002 -183.7723 -119.3256
TCL: Running FEP window  20: Lambda1 0.049999999999999684 Lambda2 0.0    [dLambda -0.049999999999999684]
TCL: Setting parameter firsttimestep to 0
TCL: Setting parameter alchLambda to 0.049999999999999684
Info: NONBONDED TABLE R-SQUARED SPACING: 0.0625
Info: NONBONDED TABLE SIZE: 705 POINTS
TCL: Setting parameter alchLambda2 to 0.0
Info: NONBONDED TABLE R-SQUARED SPACING: 0.0625
Info: NONBONDED TABLE SIZE: 705 POINTS
TCL: Running for 1500000 steps
ETITLE: TS BOND ANGLE DIHED IMPRP ELECT VDW BOUNDARY MISC KINETIC TOTAL TEMP POTENTIAL TOTALAVG TEMPAVG PRESSURE GPRESSURE VOLUME PRESSAVG GPRESSAVG
ENERGY: 0 6.8382 23.3644 28.9976 0.0000 -10800.7721 1502.3616 0.0000 0.0000 1726.6406 -7512.5696 294.6872 -9239.2102 -7512.5696 294.6872 379.4661 476.0478 29948.2002 379.4661 476.0478
ENERGY: 300000 6.0205 21.8009 25.9170 0.0000 -10534.4181 1352.7785 0.0000 0.0000 1802.5663 -7325.3348 307.6455 -9127.9012 -7428.6686 301.0718 -411.9462 -344.8370 30161.2641 -93.0016 1.0682
ENERGY: 600000 7.9288 22.7000 26.5383 0.0000 -10871.0140 1556.3042 0.0000 0.0000 1790.5452 -7466.9975 305.5938 -9257.5427 -7429.1218 302.0707 895.7340 900.1593 29835.7751 137.9933 206.8694
ENERGY: 900000 10.0113 18.0380 28.3289 0.0000 -10649.7167 1409.3361 0.0000 0.0000 1708.9984 -7475.0040 291.6761 -9184.0024 -7436.9087 301.3754 -462.0970 -395.9029 29822.3051 135.6988 199.9746
ENERGY: 1200000 8.3100 13.7720 23.7125 0.0000 -10653.2389 1386.5666 0.0000 0.0000 1782.5137 -7438.3641 304.2231 -9220.8778 -7425.3226 301.0711 -349.7605 -232.1242 29981.3984 76.9156 148.3776
ENERGY: 1500000 10.8114 20.4923 25.9734 0.0000 -10745.0299 1514.4237 0.0000 0.0000 1779.6013 -7393.7277 303.7260 -9173.3291 -7425.9512 300.8896 1094.3412 1097.8358 29163.2476 192.7924 259.5396
TCL: Exiting due to exit command.
