Info: SIMULATION PARAMETERS:
Info: TIMESTEP               2
Info: NUMBER OF STEPS        0
Info: STEPS PER CYCLE        10
Info: PERIODIC CELL BASIS 1  31.0407 0 0
Info: PERIODIC CELL BASIS 2  0 28.2006 0
Info: PERIODIC CELL BASIS 3  0 0 34.7076
Info: PERIODIC CELL CENTER   0 0 0
Info: WRAPPING WATERS AROUND PERIODIC BOUNDARIES ON OUTPUT.
Info: WRAPPING ALL CLUSTERS AROUND PERIODIC BOUNDARIES ON OUTPUT.
Info: FIRST LDB TIMESTEP     50
Info: LAST LDB TIMESTEP     -1
Info: HOM BACKGROUND SCALING 1
Info: PME BACKGROUND SCALING 1
Info: MIN ATOMS PER PATCH    40
Info: EMPTY PATCH LOAD       40 ATOMS
Info: VELOCITY FILE          mobley_6619554_equil.vel
Info: CENTER OF MASS MOVING INITIALLY? NO
Info: DIELECTRIC             1
Info: EXCLUDE                SCALED ONE-FOUR
Info: 1-4 ELECTROSTATICS SCALED BY 0.833333
Info: MODIFIED 1-4 VDW PARAMETERS WILL BE USED
Info: DCD FILENAME           mobley_6619554_prod.dcd
Info: DCD FREQUENCY          100000
Info: DCD FIRST STEP         100000
Info: DCD FILE WILL CONTAIN UNIT CELL DATA
Info: XST FILENAME           mobley_6619554_prod.xst
Info: XST FREQUENCY          100000
Info: NO VELOCITY DCD OUTPUT
Info: NO FORCE DCD OUTPUT
Info: OUTPUT FILENAME        mobley_6619554_prod
Info: BINARY OUTPUT FILES WILL BE USED
Info: RESTART FILENAME       mobley_6619554_prod.restart
Info: RESTART FREQUENCY      100000
Info: BINARY RESTART FILES WILL BE USED
Info: CUTOFF                 9
Info: PAIRLIST DISTANCE      11
Info: PAIRLIST SHRINK RATE   0.01
Info: PAIRLIST GROW RATE     0.01
Info: PAIRLIST TRIGGER       0.3
Info: PAIRLISTS PER CYCLE    2
Info: PAIRLISTS ENABLED
Info: MARGIN                 2
Info: HYDROGEN GROUP CUTOFF  2.5
Info: PATCH DIMENSION        15.5
Info: ENERGY OUTPUT STEPS    100000
Info: ENERGY EVALUATION STEPS    100000
Info: OUTPUT ENERGY PRECISION 4
Info: CROSSTERM ENERGY INCLUDED IN DIHEDRAL
Info: TIMING OUTPUT STEPS    1000000
Info: PRESSURE OUTPUT STEPS  100000
Info: ALCHEMICAL FEP ON
Info: FEP CURRENT LAMBDA VALUE     1
Info: FEP COMPARISON LAMBDA VALUE  0.95
Info: FEP INTRA-ALCHEMICAL NON-BONDED INTERACTIONS WILL BE RETAINED
Info: FEP INTRA-ALCHEMICAL BONDED INTERACTIONS WILL BE RETAINED
Info: FEP VDW SHIFTING COEFFICIENT 5
Info: FEP ELEC. ACTIVE FOR ANNIHILATED PARTICLES BETWEEN LAMBDA = 0 AND LAMBDA = 0.5
Info: FEP ELEC. ACTIVE FOR EXNIHILATED PARTICLES BETWEEN LAMBDA = 0.5 AND LAMBDA = 1
Info: FEP VDW ACTIVE FOR ANNIHILATED PARTICLES BETWEEN LAMBDA = 0 AND LAMBDA = 1
Info: FEP VDW ACTIVE FOR EXNIHILATED PARTICLES BETWEEN LAMBDA = 0 AND LAMBDA = 1
Info: FEP BOND ACTIVE FOR ANNIHILATED PARTICLES BETWEEN LAMBDA = 1 AND LAMBDA = 1
Info: FEP BOND ACTIVE FOR EXNIHILATED PARTICLES BETWEEN LAMBDA = 0 AND LAMBDA = 0
Info: LANGEVIN DYNAMICS ACTIVE
Info: LANGEVIN TEMPERATURE   300
Info: LANGEVIN USING BBK INTEGRATOR
Info: LANGEVIN DAMPING COEFFICIENT IS 1 INVERSE PS
Info: LANGEVIN DYNAMICS APPLIED TO HYDROGENS
Info: LANGEVIN PISTON PRESSURE CONTROL ACTIVE
Info:        TARGET PRESSURE IS 1.01325 BAR
Info:     OSCILLATION PERIOD IS 50 FS
Info:             DECAY TIME IS 25 FS
Info:     PISTON TEMPERATURE IS 300 K
Info:       PRESSURE CONTROL IS GROUP-BASED
Info:    INITIAL STRAIN RATE IS 0.000430497 0.000430497 0.000430497
Info:       CELL FLUCTUATION IS ISOTROPIC
Info: PARTICLE MESH EWALD (PME) ACTIVE
Info: PME TOLERANCE               1e-06
Info: PME EWALD COEFFICIENT       0.348832
Info: PME INTERPOLATION ORDER     4
Info: PME GRID DIMENSIONS         32 32 36
Info: PME MAXIMUM GRID SPACING    1
Info: PME CALCULATION WILL BE PERFORMED ON GPU
Info: FULL ELECTROSTATIC EVALUATION FREQUENCY      2
Info: USING VERLET I (r-RESPA) MTS SCHEME.
Info: C1 SPLITTING OF LONG RANGE ELECTROSTATICS
Info: PLACING ATOMS IN PATCHES BY HYDROGEN GROUPS
Info: RIGID BONDS TO HYDROGEN : ALL
Info:         ERROR TOLERANCE : 1e-08
Info:          MAX ITERATIONS : 100
Info: RIGID WATER USING SETTLE ALGORITHM
Info: RANDOM NUMBER SEED     1743979944
Info: USE HYDROGEN BONDS?    NO
Info: Using AMBER format force field!
Info: AMBER PARM FILE        mobley_6619554.prmtop
Info: COORDINATE PDB         mobley_6619554.pdb
Info: Exclusions will be read from PARM file!
Info: SCNB (VDW SCALING)     2
Info: USING ARITHMETIC MEAN TO COMBINE L-J SIGMA PARAMETERS
Info: BINARY COORDINATES     mobley_6619554_equil.coor
Info: SUMMARY OF PARAMETERS:
Info: 9 BONDS
Info: 13 ANGLES
Info:   13 HARMONIC
Info:   0 COSINE-BASED
Info: 20 DIHEDRAL
Info: 0 IMPROPER
Info: 0 CROSSTERM
Info: 0 VDW
Info: 36 VDW_PAIRS
Info: 0 NBTHOLE_PAIRS
Info: To read alchdata from file: mobley_6619554.pdb
Info: To read alchflag data from column: 5
Info: STRUCTURE SUMMARY:
Info: 2951 ATOMS
Info: 2950 BONDS
Info: 40 ANGLES
Info: 61 DIHEDRALS
Info: 0 IMPROPERS
Info: 0 CROSSTERMS
Info: 3037 EXCLUSIONS
Info: 2942 RIGID BONDS
Info: ALCH: 0 ATOMS TO DISAPPEAR IN FINAL STATE
Info: ALCH: 23 ATOMS TO APPEAR IN FINAL STATE
Info: 5911 DEGREES OF FREEDOM
Info: 985 HYDROGEN GROUPS
Info: 4 ATOMS IN LARGEST HYDROGEN GROUP
Info: 985 MIGRATION GROUPS
Info: 4 ATOMS IN LARGEST MIGRATION GROUP
Info: TOTAL MASS = 17713.8 amu
Info: TOTAL CHARGE = 0.00010005 e
Info: MASS DENSITY = 0.96818 g/cm^3
Info: ATOM DENSITY = 0.0971303 atoms/A^3
Info: ADDED 0 IMPLICIT EXCLUSIONS
Info: NONBONDED TABLE R-SQUARED SPACING: 0.0625
Info: NONBONDED TABLE SIZE: 705 POINTS
Info: REMOVING COM VELOCITY -0.312656 -0.361694 0.0774347
Info: Use 3D box decompostion in PME FFT.
Info: Updated CUDA force table with 4096 elements.
Info: Updated CUDA LJ table with 8 x 8 elements.
Info: Found 24 unique exclusion lists needing 72 bytes
TCL: Running for 1500000 steps
ETITLE: TS BOND ANGLE DIHED IMPRP ELECT VDW BOUNDARY MISC KINETIC TOTAL TEMP POTENTIAL TOTALAVG TEMPAVG PRESSURE GPRESSURE VOLUME PRESSAVG GPRESSAVG
ENERGY: 0 1.9958 11.2044 5.8238 0.0000 -10634.0788 1436.5305 0.0000 0.0000 1774.0763 -7404.4480 302.0659 -9178.5243 -7404.4480 302.0659 217.7937 309.3878 30381.8796 217.7937 309.3878
ENERGY: 300000 3.8080 10.6783 5.6494 0.0000 -10740.5048 1419.8426 0.0000 0.0000 1767.2348 -7533.2917 300.9010 -9300.5265 -7472.8484 301.8216 186.6733 155.1876 29972.4315 142.9986 191.4958
ENERGY: 600000 3.0889 7.1561 6.0027 0.0000 -10803.9738 1501.5736 0.0000 0.0000 1782.7671 -7503.3853 303.5457 -9286.1524 -7480.8538 301.0405 656.5135 723.7188 29653.0794 265.6903 307.3304
ENERGY: 900000 1.0980 8.8624 4.4873 0.0000 -10508.5869 1367.3482 0.0000 0.0000 1823.4541 -7303.3369 310.4733 -9126.7910 -7453.5305 301.5162 -96.5838 -70.8666 30764.3416 268.2939 324.6404
ENERGY: 1200000 2.4689 10.2367 6.9238 0.0000 -10601.0286 1372.2911 0.0000 0.0000 1781.6403 -7427.4678 303.3538 -9209.1081 -7450.9511 301.2979 -354.3320 -348.2938 30621.9658 79.9974 129.2706
ENERGY: 1500000 1.5894 5.0977 6.2431 0.0000 -10595.1951 1383.3187 0.0000 0.0000 1765.6643 -7433.2820 300.6336 -9198.9462 -7454.0153 300.8860 -189.2500 -152.3035 30536.9010 78.7050 122.0155
TCL: Running FEP window   2: Lambda1 0.95   Lambda2 0.8999999999999999 [dLambda -0.050000000000000044]
TCL: Setting parameter firsttimestep to 0
TCL: Setting parameter alchLambda to 0.95
Info: NONBONDED TABLE R-SQUARED SPACING: 0.0625
Info: NONBONDED TABLE SIZE: 705 POINTS
TCL: Setting parameter alchLambda2 to 0.8999999999999999
Info: NONBONDED TABLE R-SQUARED SPACING: 0.0625
Info: NONBONDED TABLE SIZE: 705 POINTS
TCL: Running for 1500000 steps
ETITLE: TS BOND ANGLE DIHED IMPRP ELECT VDW BOUNDARY MISC KINETIC TOTAL TEMP POTENTIAL TOTALAVG TEMPAVG PRESSURE GPRESSURE VOLUME PRESSAVG GPRESSAVG
ENERGY: 0 1.5894 5.0977 6.2431 0.0000 -10593.0610 1381.3026 0.0000 0.0000 1764.7775 -7434.0507 300.4826 -9198.8282 -7434.0507 300.4826 -276.8412 -192.6252 30536.9010 -276.8412 -192.6252
ENERGY: 300000 3.5159 9.5891 5.9482 0.0000 -10702.3677 1476.5028 0.0000 0.0000 1781.7069 -7425.1048 303.3651 -9206.8117 -7431.3053 300.4349 729.0120 811.0813 29980.8445 -8.7357 63.3983
ENERGY: 600000 4.7451 12.8974 6.8680 0.0000 -10762.6424 1483.1014 0.0000 0.0000 1793.3710 -7461.6595 305.3512 -9255.0305 -7447.8306 300.2381 233.4838 364.4662 30082.8102 -53.0336 27.6727
ENERGY: 900000 0.9173 8.3658 7.2466 0.0000 -10663.9090 1390.2117 0.0000 0.0000 1710.5323 -7546.6353 291.2465 -9257.1676 -7473.8361 299.8775 -183.2235 -127.7082 30200.8351 -38.6719 35.5450
ENERGY: 1200000 2.3949 8.3725 5.5966 0.0000 -10686.8311 1381.0314 0.0000 0.0000 1751.8441 -7537.5915 298.2805 -9289.4356 -7472.4775 301.0235 -533.8681 -472.5294 30301.9802 -146.9128 -76.0515
ENERGY: 1500000 4.3320 9.2749 5.8400 0.0000 -10679.6242 1426.1429 0.0000 0.0000 1798.5231 -7435.5112 306.2284 -9234.0343 -7477.9888 300.7578 247.0101 309.5203 30109.7124 -62.7628 7.9718
TCL: Running FEP window   3: Lambda1 0.8999999999999999 Lambda2 0.8499999999999999 [dLambda -0.050000000000000044]
TCL: Setting parameter firsttimestep to 0
TCL: Setting parameter alchLambda to 0.8999999999999999
Info: NONBONDED TABLE R-SQUARED SPACING: 0.0625
Info: NONBONDED TABLE SIZE: 705 POINTS
TCL: Setting parameter alchLambda2 to 0.8499999999999999
Info: NONBONDED TABLE R-SQUARED SPACING: 0.0625
Info: NONBONDED TABLE SIZE: 705 POINTS
TCL: Running for 1500000 steps
ETITLE: TS BOND ANGLE DIHED IMPRP ELECT VDW BOUNDARY MISC KINETIC TOTAL TEMP POTENTIAL TOTALAVG TEMPAVG PRESSURE GPRESSURE VOLUME PRESSAVG GPRESSAVG
ENERGY: 0 4.3320 9.2749 5.8400 0.0000 -10678.1780 1424.7700 0.0000 0.0000 1797.6642 -7436.2967 306.0822 -9233.9610 -7436.2967 306.0822 203.5095 276.9777 30109.7124 203.5095 276.9777
ENERGY: 300000 2.7622 12.5077 5.4194 0.0000 -10693.6075 1471.2889 0.0000 0.0000 1745.3485 -7456.2807 297.1745 -9201.6293 -7430.4961 303.1801 366.4671 420.4599 30200.4878 342.9747 425.3415
ENERGY: 600000 1.6397 7.3721 6.7125 0.0000 -10642.6093 1468.7246 0.0000 0.0000 1771.5617 -7386.5986 301.6378 -9158.1603 -7443.8220 302.7754 402.8907 531.0780 30681.3895 356.2060 443.5661
ENERGY: 900000 0.4847 10.0817 5.0411 0.0000 -10638.4130 1409.0651 0.0000 0.0000 1802.1086 -7411.6317 306.8389 -9213.7404 -7446.2669 304.1421 -91.6489 -4.2500 30507.0152 88.8027 178.0884
ENERGY: 1200000 1.3159 10.2663 4.1621 0.0000 -10652.8943 1398.2991 0.0000 0.0000 1755.0226 -7483.8283 298.8217 -9238.8510 -7461.0657 302.2844 -291.9052 -214.6958 30203.9423 107.8550 188.9726
ENERGY: 1500000 1.9328 16.1651 5.6846 0.0000 -10759.3615 1434.0426 0.0000 0.0000 1735.4427 -7566.0938 295.4879 -9301.5366 -7471.9712 301.1093 24.4905 126.8019 29807.0455 89.5307 164.6194
TCL: Running FEP window   4: Lambda1 0.8499999999999999 Lambda2 0.7999999999999998 [dLambda -0.050000000000000044]
TCL: Setting parameter firsttimestep to 0
TCL: Setting parameter alchLambda to 0.8499999999999999
Info: NONBONDED TABLE R-SQUARED SPACING: 0.0625
Info: NONBONDED TABLE SIZE: 705 POINTS
TCL: Setting parameter alchLambda2 to 0.7999999999999998
Info: NONBONDED TABLE R-SQUARED SPACING: 0.0625
Info: NONBONDED TABLE SIZE: 705 POINTS
TCL: Running for 1500000 steps
ETITLE: TS BOND ANGLE DIHED IMPRP ELECT VDW BOUNDARY MISC KINETIC TOTAL TEMP POTENTIAL TOTALAVG TEMPAVG PRESSURE GPRESSURE VOLUME PRESSAVG GPRESSAVG
ENERGY: 0 1.9328 16.1651 5.6846 0.0000 -10758.2426 1433.6561 0.0000 0.0000 1734.5758 -7566.2283 295.3403 -9300.8041 -7566.2283 295.3403 21.6616 108.1912 29807.0455 21.6616 108.1912
ENERGY: 300000 3.8285 12.8812 6.3426 0.0000 -10572.1141 1370.2387 0.0000 0.0000 1755.2371 -7423.5861 298.8582 -9178.8232 -7465.2434 299.9912 -425.8791 -372.0639 30625.1662 -83.9345 -25.5979
ENERGY: 600000 1.5624 8.8039 8.2468 0.0000 -10520.3405 1340.1419 0.0000 0.0000 1743.7661 -7417.8195 296.9051 -9161.5856 -7469.0559 299.7114 -811.2932 -777.2333 31011.4031 -189.7351 -143.0034
ENERGY: 900000 5.7333 12.1575 6.9511 0.0000 -10661.5245 1453.4014 0.0000 0.0000 1745.8607 -7437.4205 297.2617 -9183.2812 -7465.3574 299.0217 48.9563 108.5855 30808.5854 -189.1694 -137.5343
ENERGY: 1200000 0.9099 11.1044 5.1837 0.0000 -10535.2610 1328.6531 0.0000 0.0000 1756.2912 -7433.1187 299.0377 -9189.4099 -7461.6549 299.5475 -906.4242 -837.4364 31031.3104 -235.9425 -171.1821
ENERGY: 1500000 2.3781 16.7247 6.4004 0.0000 -10859.2136 1515.9626 0.0000 0.0000 1763.8471 -7553.9007 300.3242 -9317.7478 -7470.0291 299.4249 398.0287 554.8406 30015.8756 -160.5957 -91.0765
TCL: Running FEP window   5: Lambda1 0.7999999999999998 Lambda2 0.7499999999999998 [dLambda -0.050000000000000044]
TCL: Setting parameter firsttimestep to 0
TCL: Setting parameter alchLambda to 0.7999999999999998
Info: NONBONDED TABLE R-SQUARED SPACING: 0.0625
Info: NONBONDED TABLE SIZE: 705 POINTS
TCL: Setting parameter alchLambda2 to 0.7499999999999998
Info: NONBONDED TABLE R-SQUARED SPACING: 0.0625
Info: NONBONDED TABLE SIZE: 705 POINTS
TCL: Running for 1500000 steps
ETITLE: TS BOND ANGLE DIHED IMPRP ELECT VDW BOUNDARY MISC KINETIC TOTAL TEMP POTENTIAL TOTALAVG TEMPAVG PRESSURE GPRESSURE VOLUME PRESSAVG GPRESSAVG
ENERGY: 0 2.3781 16.7247 6.4004 0.0000 -10857.1553 1515.1645 0.0000 0.0000 1762.9801 -7553.5075 300.1766 -9316.4876 -7553.5075 300.1766 436.7020 537.1940 30015.8756 436.7020 537.1940
ENERGY: 300000 2.9394 7.6639 4.9360 0.0000 -10486.0332 1292.0217 0.0000 0.0000 1727.8014 -7450.6708 294.1868 -9178.4722 -7505.0912 299.1882 -1251.1113 -1110.0685 30837.6224 50.6180 148.5711
ENERGY: 600000 3.0294 9.2186 4.2858 0.0000 -10592.6605 1380.6148 0.0000 0.0000 1706.9712 -7488.5407 290.6402 -9195.5119 -7487.6566 298.3007 -461.3059 -363.6228 30542.9364 -17.9107 72.2458
ENERGY: 900000 2.0665 10.5478 5.1334 0.0000 -10726.2558 1491.0744 0.0000 0.0000 1810.0037 -7407.4300 308.1831 -9217.4337 -7470.2300 300.0839 599.6429 718.5260 30016.5651 -6.5040 82.4735
ENERGY: 1200000 0.2567 14.5524 7.3898 0.0000 -10735.6434 1452.9214 0.0000 0.0000 1787.0739 -7473.4492 304.2790 -9260.5231 -7467.5067 300.4810 223.9514 302.0627 30222.0261 17.6404 91.1625
ENERGY: 1500000 3.8372 9.6974 6.0200 0.0000 -10674.4646 1422.6686 0.0000 0.0000 1742.8239 -7489.4176 296.7447 -9232.2415 -7464.3793 300.5035 -133.2379 -77.1144 30141.8948 -11.4956 58.7772
TCL: Running FEP window   6: Lambda1 0.7499999999999998 Lambda2 0.6999999999999997 [dLambda -0.050000000000000044]
TCL: Setting parameter firsttimestep to 0
TCL: Setting parameter alchLambda to 0.7499999999999998
Info: NONBONDED TABLE R-SQUARED SPACING: 0.0625
Info: NONBONDED TABLE SIZE: 705 POINTS
TCL: Setting parameter alchLambda2 to 0.6999999999999997
Info: NONBONDED TABLE R-SQUARED SPACING: 0.0625
Info: NONBONDED TABLE SIZE: 705 POINTS
TCL: Running for 1500000 steps
ETITLE: TS BOND ANGLE DIHED IMPRP ELECT VDW BOUNDARY MISC KINETIC TOTAL TEMP POTENTIAL TOTALAVG TEMPAVG PRESSURE GPRESSURE VOLUME PRESSAVG GPRESSAVG
ENERGY: 0 3.8372 9.6974 6.0200 0.0000 -10672.8816 1422.9391 0.0000 0.0000 1741.9411 -7488.4469 296.5944 -9230.3880 -7488.4469 296.5944 -174.3047 -80.6827 30141.8948 -174.3047 -80.6827
ENERGY: 300000 2.0277 11.5778 4.9170 0.0000 -10637.6361 1352.2988 0.0000 0.0000 1764.1556 -7502.6590 300.3768 -9266.8147 -7489.7219 299.4980 -700.0761 -613.1186 30189.5062 -273.4965 -203.2031
ENERGY: 600000 3.3790 13.6352 5.9262 0.0000 -10702.1193 1466.3897 0.0000 0.0000 1689.6211 -7523.1681 287.6860 -9212.7892 -7488.4893 297.2530 277.0557 343.6013 30302.0020 -111.8250 -53.0866
ENERGY: 900000 1.5709 8.2948 6.6079 0.0000 -10557.6942 1363.3350 0.0000 0.0000 1720.6179 -7457.2677 292.9637 -9177.8855 -7467.4048 300.0299 -461.9934 -415.3168 30421.7951 -146.8173 -96.4046
ENERGY: 1200000 2.5303 10.3540 6.2401 0.0000 -10633.3381 1393.7387 0.0000 0.0000 1744.7271 -7475.7479 297.0687 -9220.4750 -7460.7696 299.5573 -228.7659 -192.2911 30180.9465 -167.6254 -113.3194
ENERGY: 1500000 4.7792 9.3688 4.1112 0.0000 -10694.5510 1423.7101 0.0000 0.0000 1798.9155 -7453.6662 306.2952 -9252.5817 -7461.5803 300.0293 73.9133 54.0631 30065.0012 -166.9430 -115.0159
TCL: Running FEP window   7: Lambda1 0.6999999999999997 Lambda2 0.6499999999999997 [dLambda -0.050000000000000044]
TCL: Setting parameter firsttimestep to 0
TCL: Setting parameter alchLambda to 0.6999999999999997
Info: NONBONDED TABLE R-SQUARED SPACING: 0.0625
Info: NONBONDED TABLE SIZE: 705 POINTS
TCL: Setting parameter alchLambda2 to 0.6499999999999997
Info: NONBONDED TABLE R-SQUARED SPACING: 0.0625
Info: NONBONDED TABLE SIZE: 705 POINTS
TCL: Running for 1500000 steps
ETITLE: TS BOND ANGLE DIHED IMPRP ELECT VDW BOUNDARY MISC KINETIC TOTAL TEMP POTENTIAL TOTALAVG TEMPAVG PRESSURE GPRESSURE VOLUME PRESSAVG GPRESSAVG
ENERGY: 0 4.7792 9.3688 4.1112 0.0000 -10693.8635 1424.4002 0.0000 0.0000 1798.0169 -7453.1871 306.1422 -9251.2041 -7453.1871 306.1422 -45.7575 49.7433 30065.0012 -45.7575 49.7433
ENERGY: 300000 3.5857 10.5793 5.4166 0.0000 -10750.4483 1431.8552 0.0000 0.0000 1726.3817 -7572.6297 293.9451 -9299.0115 -7456.5453 300.3270 -196.4492 -119.8736 30080.1726 -71.2616 4.0274
ENERGY: 600000 4.2077 8.2703 6.2688 0.0000 -10582.7782 1389.5463 0.0000 0.0000 1744.1977 -7430.2874 296.9786 -9174.4851 -7484.4995 297.6153 -327.9214 -221.7278 30552.5622 -135.6762 -65.4677
ENERGY: 900000 3.0871 10.0948 6.8431 0.0000 -10616.5532 1407.4188 0.0000 0.0000 1778.0382 -7411.0711 302.7405 -9189.1093 -7466.1809 299.4825 -77.7212 -16.0380 30428.4017 -72.3753 -3.9659
ENERGY: 1200000 2.0127 12.3480 4.7511 0.0000 -10776.0994 1501.4560 0.0000 0.0000 1765.9567 -7489.5749 300.6834 -9255.5316 -7463.4807 299.1309 437.0604 447.1343 30445.1633 -55.7119 13.0396
ENERGY: 1500000 1.6266 11.8741 5.2692 0.0000 -10449.2771 1302.4113 0.0000 0.0000 1769.7277 -7358.3682 301.3255 -9128.0959 -7462.2816 299.2909 -987.0754 -918.5983 31163.5193 -94.6795 -29.9139
TCL: Running FEP window   8: Lambda1 0.6499999999999997 Lambda2 0.5999999999999996 [dLambda -0.050000000000000044]
TCL: Setting parameter firsttimestep to 0
TCL: Setting parameter alchLambda to 0.6499999999999997
Info: NONBONDED TABLE R-SQUARED SPACING: 0.0625
Info: NONBONDED TABLE SIZE: 705 POINTS
TCL: Setting parameter alchLambda2 to 0.5999999999999996
Info: NONBONDED TABLE R-SQUARED SPACING: 0.0625
Info: NONBONDED TABLE SIZE: 705 POINTS
TCL: Running for 1500000 steps
ETITLE: TS BOND ANGLE DIHED IMPRP ELECT VDW BOUNDARY MISC KINETIC TOTAL TEMP POTENTIAL TOTALAVG TEMPAVG PRESSURE GPRESSURE VOLUME PRESSAVG GPRESSAVG
ENERGY: 0 1.6266 11.8741 5.2692 0.0000 -10448.8437 1302.2034 0.0000 0.0000 1768.8777 -7358.9927 301.1808 -9127.8703 -7358.9927 301.1808 -1008.3476 -928.0950 31163.5193 -1008.3476 -928.0950
ENERGY: 300000 2.4033 11.7276 5.0711 0.0000 -10767.5344 1450.7455 0.0000 0.0000 1723.8705 -7573.7164 293.5175 -9297.5869 -7503.1073 299.0374 -2.0222 48.4412 30214.8878 -256.3468 -222.3410
ENERGY: 600000 1.1882 8.3685 6.6592 0.0000 -10746.1113 1519.5974 0.0000 0.0000 1761.2935 -7449.0045 299.8894 -9210.2980 -7483.5587 300.0186 1024.7042 1048.1093 29702.2306 -82.6272 -37.1450
ENERGY: 900000 5.6355 10.7508 6.8294 0.0000 -10702.8550 1449.6747 0.0000 0.0000 1753.6221 -7476.3425 298.5832 -9229.9646 -7471.3986 299.8493 -10.3713 23.5428 30428.3982 -132.0004 -82.8545
ENERGY: 1200000 1.9770 8.2519 5.5760 0.0000 -10667.2998 1428.8751 0.0000 0.0000 1742.4387 -7480.1812 296.6791 -9222.6199 -7475.6641 298.7058 -188.1344 -144.1125 30620.0924 -227.1966 -174.8422
ENERGY: 1500000 1.6545 13.8911 4.5661 0.0000 -10571.5111 1436.6583 0.0000 0.0000 1779.7968 -7334.9442 303.0399 -9114.7411 -7461.1280 299.5777 450.6496 493.2555 30404.9516 -178.6555 -120.3689
TCL: Running FEP window   9: Lambda1 0.5999999999999996 Lambda2 0.5499999999999996 [dLambda -0.050000000000000044]
TCL: Setting parameter firsttimestep to 0
TCL: Setting parameter alchLambda to 0.5999999999999996
Info: NONBONDED TABLE R-SQUARED SPACING: 0.0625
Info: NONBONDED TABLE SIZE: 705 POINTS
TCL: Setting parameter alchLambda2 to 0.5499999999999996
Info: NONBONDED TABLE R-SQUARED SPACING: 0.0625
Info: NONBONDED TABLE SIZE: 705 POINTS
TCL: Running for 1500000 steps
ETITLE: TS BOND ANGLE DIHED IMPRP ELECT VDW BOUNDARY MISC KINETIC TOTAL TEMP POTENTIAL TOTALAVG TEMPAVG PRESSURE GPRESSURE VOLUME PRESSAVG GPRESSAVG
ENERGY: 0 1.6545 13.8911 4.5661 0.0000 -10570.6418 1436.1348 0.0000 0.0000 1778.9225 -7335.4727 302.8911 -9114.3952 -7335.4727 302.8911 394.8782 477.5850 30404.9516 394.8782 477.5850
ENERGY: 300000 0.5483 10.9614 8.4076 0.0000 -10785.5300 1507.6361 0.0000 0.0000 1732.0365 -7525.9401 294.9079 -9257.9766 -7471.7747 296.7342 580.1444 587.0819 30017.0578 410.9458 462.4806
ENERGY: 600000 1.2454 14.7724 5.1719 0.0000 -10695.2892 1441.0180 0.0000 0.0000 1769.3202 -7463.7612 301.2561 -9233.0814 -7485.8309 297.5343 330.9366 273.4154 30370.5052 342.3207 384.1037
ENERGY: 900000 3.2863 7.7656 8.1212 0.0000 -10545.8771 1315.6095 0.0000 0.0000 1814.4424 -7396.6522 308.9389 -9211.0946 -7466.1614 298.7791 -841.4126 -738.8608 30382.3422 98.9951 150.8671
ENERGY: 1200000 2.5097 12.4100 7.0269 0.0000 -10805.7917 1540.6194 0.0000 0.0000 1784.4708 -7458.7549 303.8357 -9243.2257 -7463.5704 299.9963 779.0748 831.0022 30148.4579 92.5074 144.3544
ENERGY: 1500000 2.9166 10.7062 6.8352 0.0000 -10660.6777 1436.8912 0.0000 0.0000 1778.6319 -7424.6966 302.8416 -9203.3285 -7453.5076 300.2423 205.7454 221.3934 30404.6724 -10.9195 41.4339
TCL: Running FEP window  10: Lambda1 0.5499999999999996 Lambda2 0.4999999999999996 [dLambda -0.04999999999999999]
TCL: Setting parameter firsttimestep to 0
TCL: Setting parameter alchLambda to 0.5499999999999996
Info: NONBONDED TABLE R-SQUARED SPACING: 0.0625
Info: NONBONDED TABLE SIZE: 705 POINTS
TCL: Setting parameter alchLambda2 to 0.4999999999999996
Info: NONBONDED TABLE R-SQUARED SPACING: 0.0625
Info: NONBONDED TABLE SIZE: 705 POINTS
TCL: Running for 1500000 steps
ETITLE: TS BOND ANGLE DIHED IMPRP ELECT VDW BOUNDARY MISC KINETIC TOTAL TEMP POTENTIAL TOTALAVG TEMPAVG PRESSURE GPRESSURE VOLUME PRESSAVG GPRESSAVG
ENERGY: 0 2.9166 10.7062 6.8352 0.0000 -10660.2471 1435.8043 0.0000 0.0000 1777.7612 -7426.2236 302.6933 -9203.9848 -7426.2236 302.6933 135.6568 201.0073 30404.6724 135.6568 201.0073
ENERGY: 300000 2.4372 12.5605 4.2169 0.0000 -10756.8479 1465.9730 0.0000 0.0000 1724.2553 -7547.4051 293.5831 -9271.6605 -7475.0856 298.1080 399.0730 451.3938 29743.7201 -65.2584 11.3475
ENERGY: 600000 0.7884 14.7131 7.0619 0.0000 -10744.3586 1499.7893 0.0000 0.0000 1769.5186 -7452.4874 301.2899 -9222.0059 -7465.8135 298.7788 659.3992 729.7919 30113.9207 -6.8994 63.9362
ENERGY: 900000 2.4988 7.8688 5.3117 0.0000 -10702.4451 1460.4615 0.0000 0.0000 1767.4920 -7458.8123 300.9448 -9226.3043 -7465.1731 298.9767 36.5099 105.4265 30499.6670 -51.3951 16.1531
ENERGY: 1200000 1.8148 8.7296 6.7506 0.0000 -10591.0491 1382.3101 0.0000 0.0000 1731.5804 -7459.8636 294.8303 -9191.4440 -7461.1332 299.2267 -357.9738 -255.5659 30241.2485 -6.5149 56.9703
ENERGY: 1500000 3.1265 7.6671 5.2183 0.0000 -10652.1528 1412.1261 0.0000 0.0000 1754.5611 -7469.4537 298.7431 -9224.0148 -7460.3445 299.1999 -118.1000 -95.8213 30182.8121 11.5950 74.5845
TCL: Running FEP window  11: Lambda1 0.4999999999999996 Lambda2 0.4499999999999996 [dLambda -0.04999999999999999]
TCL: Setting parameter firsttimestep to 0
TCL: Setting parameter alchLambda to 0.4999999999999996
Info: NONBONDED TABLE R-SQUARED SPACING: 0.0625
Info: NONBONDED TABLE SIZE: 705 POINTS
TCL: Setting parameter alchLambda2 to 0.4499999999999996
Info: NONBONDED TABLE R-SQUARED SPACING: 0.0625
Info: NONBONDED TABLE SIZE: 705 POINTS
TCL: Running for 1500000 steps
ETITLE: TS BOND ANGLE DIHED IMPRP ELECT VDW BOUNDARY MISC KINETIC TOTAL TEMP POTENTIAL TOTALAVG TEMPAVG PRESSURE GPRESSURE VOLUME PRESSAVG GPRESSAVG
ENERGY: 0 3.1265 7.6671 5.2183 0.0000 -10651.9009 1411.5524 0.0000 0.0000 1753.6569 -7470.6797 298.5892 -9224.3366 -7470.6797 298.5892 -198.2105 -105.1729 30182.8121 -198.2105 -105.1729
ENERGY: 300000 1.8652 11.3667 7.8221 0.0000 -10843.9792 1564.8663 0.0000 0.0000 1755.9901 -7502.0688 298.9864 -9258.0589 -7494.0655 297.9933 1338.5224 1323.7815 29762.0949 397.6419 468.7369
ENERGY: 600000 1.4603 12.7364 5.8470 0.0000 -10824.0621 1509.6663 0.0000 0.0000 1751.2464 -7543.1058 298.1787 -9294.3523 -7497.8820 298.2757 330.3881 368.4013 30445.1156 132.5462 203.4884
ENERGY: 900000 1.6919 11.2689 6.2629 0.0000 -10617.8669 1396.1960 0.0000 0.0000 1715.5705 -7486.8766 292.1043 -9202.4472 -7488.7917 299.4803 -423.7784 -354.5822 30825.7121 80.0108 157.9831
ENERGY: 1200000 2.9693 9.7924 6.0512 0.0000 -10591.3419 1397.1669 0.0000 0.0000 1737.2043 -7438.1579 295.7878 -9175.3622 -7491.2859 299.2161 -245.9781 -184.8411 30402.6673 9.7834 77.6692
ENERGY: 1500000 2.3862 9.5969 4.9199 0.0000 -10670.7362 1400.8820 0.0000 0.0000 1799.8104 -7453.1409 306.4476 -9252.9512 -7482.3118 300.3466 -414.1406 -398.8892 30351.9824 -28.0919 32.5415
TCL: Running FEP window  12: Lambda1 0.4499999999999996 Lambda2 0.39999999999999963 [dLambda -0.04999999999999999]
TCL: Setting parameter firsttimestep to 0
TCL: Setting parameter alchLambda to 0.4499999999999996
Info: NONBONDED TABLE R-SQUARED SPACING: 0.0625
Info: NONBONDED TABLE SIZE: 705 POINTS
TCL: Setting parameter alchLambda2 to 0.39999999999999963
Info: NONBONDED TABLE R-SQUARED SPACING: 0.0625
Info: NONBONDED TABLE SIZE: 705 POINTS
TCL: Running for 1500000 steps
ETITLE: TS BOND ANGLE DIHED IMPRP ELECT VDW BOUNDARY MISC KINETIC TOTAL TEMP POTENTIAL TOTALAVG TEMPAVG PRESSURE GPRESSURE VOLUME PRESSAVG GPRESSAVG
ENERGY: 0 2.3862 9.5969 4.9199 0.0000 -10670.7360 1401.6041 0.0000 0.0000 1798.9182 -7453.3107 306.2957 -9252.2289 -7453.3107 306.2957 -493.6865 -400.5159 30351.9824 -493.6865 -400.5159
ENERGY: 300000 1.6071 9.4676 5.3271 0.0000 -10722.1901 1425.3695 0.0000 0.0000 1711.7349 -7568.6839 291.4513 -9280.4188 -7473.2980 298.9000 -402.5288 -312.0655 30438.9896 -147.9177 -77.1130
ENERGY: 600000 2.8944 7.1844 5.1616 0.0000 -10680.2423 1440.0677 0.0000 0.0000 1742.6687 -7482.2655 296.7182 -9224.9342 -7460.4833 300.5205 -133.2038 -47.9074 30671.2340 -237.5249 -170.4373
ENERGY: 900000 1.2363 8.0746 5.0042 0.0000 -10586.9570 1350.1214 0.0000 0.0000 1765.2461 -7457.2744 300.5624 -9222.5205 -7455.0249 301.3118 -872.0010 -790.4777 30710.2146 -249.9185 -184.0165
ENERGY: 1200000 1.4320 12.3576 7.4309 0.0000 -10699.0102 1427.9324 0.0000 0.0000 1770.4338 -7479.4235 301.4457 -9249.8573 -7466.8715 301.4102 47.0120 102.3819 29828.8640 -140.0143 -73.0767
ENERGY: 1500000 3.6288 9.1286 8.3646 0.0000 -10659.2595 1419.6355 0.0000 0.0000 1823.3132 -7395.1887 310.4493 -9218.5019 -7471.6332 301.0957 307.1306 289.0261 30078.5345 -98.9552 -41.5958
TCL: Running FEP window  13: Lambda1 0.39999999999999963 Lambda2 0.34999999999999964 [dLambda -0.04999999999999999]
TCL: Setting parameter firsttimestep to 0
TCL: Setting parameter alchLambda to 0.39999999999999963
Info: NONBONDED TABLE R-SQUARED SPACING: 0.0625
Info: NONBONDED TABLE SIZE: 705 POINTS
TCL: Setting parameter alchLambda2 to 0.34999999999999964
Info: NONBONDED TABLE R-SQUARED SPACING: 0.0625
Info: NONBONDED TABLE SIZE: 705 POINTS
TCL: Running for 1500000 steps
ETITLE: TS BOND ANGLE DIHED IMPRP ELECT VDW BOUNDARY MISC KINETIC TOTAL TEMP POTENTIAL TOTALAVG TEMPAVG PRESSURE GPRESSURE VOLUME PRESSAVG GPRESSAVG
ENERGY: 0 3.6288 9.1287 8.3646 0.0000 -10659.2596 1418.9112 0.0000 0.0000 1822.4370 -7396.7894 310.3001 -9219.2264 -7396.7894 310.3001 188.7552 273.1143 30078.5345 188.7552 273.1143
ENERGY: 300000 2.9124 10.5341 7.2671 0.0000 -10875.2915 1503.6918 0.0000 0.0000 1680.4438 -7670.4422 286.1234 -9350.8860 -7482.7756 298.7952 153.2414 204.5738 30171.0765 124.6983 164.5260
ENERGY: 600000 0.6703 6.6896 4.3330 0.0000 -10616.4427 1419.7629 0.0000 0.0000 1808.0612 -7376.9257 307.8524 -9184.9869 -7463.2009 301.0843 244.8559 242.8779 30217.3036 250.3183 292.9489
ENERGY: 900000 1.6084 10.3544 5.6265 0.0000 -10608.0421 1404.5116 0.0000 0.0000 1787.7619 -7398.1792 304.3961 -9185.9411 -7461.3049 300.1448 -210.1508 -155.8800 30553.7966 85.1637 134.3332
ENERGY: 1200000 0.9092 9.7741 4.9353 0.0000 -10749.4202 1502.4651 0.0000 0.0000 1769.4228 -7461.9136 301.2736 -9231.3364 -7456.7570 299.9414 551.8785 619.1834 30038.4217 179.6938 228.6047
ENERGY: 1500000 1.5027 8.7369 4.5584 0.0000 -10809.7960 1520.2470 0.0000 0.0000 1659.3010 -7615.4499 282.5235 -9274.7510 -7469.3850 299.0911 702.6070 745.5137 29546.6895 195.2840 249.0096
TCL: Running FEP window  14: Lambda1 0.34999999999999964 Lambda2 0.29999999999999966 [dLambda -0.04999999999999999]
TCL: Setting parameter firsttimestep to 0
TCL: Setting parameter alchLambda to 0.34999999999999964
Info: NONBONDED TABLE R-SQUARED SPACING: 0.0625
Info: NONBONDED TABLE SIZE: 705 POINTS
TCL: Setting parameter alchLambda2 to 0.29999999999999966
Info: NONBONDED TABLE R-SQUARED SPACING: 0.0625
Info: NONBONDED TABLE SIZE: 705 POINTS
TCL: Running for 1500000 steps
ETITLE: TS BOND ANGLE DIHED IMPRP ELECT VDW BOUNDARY MISC KINETIC TOTAL TEMP POTENTIAL TOTALAVG TEMPAVG PRESSURE GPRESSURE VOLUME PRESSAVG GPRESSAVG
ENERGY: 0 1.5027 8.7369 4.5584 0.0000 -10809.7957 1520.8292 0.0000 0.0000 1658.4170 -7615.7516 282.3730 -9274.1685 -7615.7516 282.3730 655.6788 743.0481 29546.6895 655.6788 743.0481
ENERGY: 300000 2.0420 9.9721 6.5575 0.0000 -10608.6118 1382.6971 0.0000 0.0000 1783.0555 -7424.2876 303.5948 -9207.3431 -7511.1859 295.0553 -436.6360 -281.5612 30236.6738 -110.5314 -10.7975
ENERGY: 600000 1.2351 9.7982 6.6192 0.0000 -10619.8830 1393.1017 0.0000 0.0000 1803.2707 -7405.8580 307.0367 -9209.1287 -7477.3926 299.4317 -204.3346 -157.8748 30601.9263 -113.2402 -11.7239
ENERGY: 900000 7.5040 9.0230 5.1942 0.0000 -10683.3827 1437.1906 0.0000 0.0000 1734.6682 -7489.8028 295.3560 -9224.4710 -7471.2396 300.6869 -547.2379 -448.6732 30937.2707 -152.1619 -61.7006
ENERGY: 1200000 1.3588 7.3406 5.7533 0.0000 -10731.0029 1471.0211 0.0000 0.0000 1773.2629 -7472.2661 301.9274 -9245.5290 -7468.3040 300.9212 99.2784 159.3900 30434.2395 -112.2711 -30.7244
ENERGY: 1500000 1.9177 10.8659 5.7868 0.0000 -10845.8341 1529.4044 0.0000 0.0000 1742.9481 -7554.9112 296.7658 -9297.8593 -7475.0759 300.2503 513.2893 637.1559 30030.2281 -103.7985 -19.1210
TCL: Running FEP window  15: Lambda1 0.29999999999999966 Lambda2 0.24999999999999967 [dLambda -0.04999999999999999]
TCL: Setting parameter firsttimestep to 0
TCL: Setting parameter alchLambda to 0.29999999999999966
Info: NONBONDED TABLE R-SQUARED SPACING: 0.0625
Info: NONBONDED TABLE SIZE: 705 POINTS
TCL: Setting parameter alchLambda2 to 0.24999999999999967
Info: NONBONDED TABLE R-SQUARED SPACING: 0.0625
Info: NONBONDED TABLE SIZE: 705 POINTS
TCL: Running for 1500000 steps
ETITLE: TS BOND ANGLE DIHED IMPRP ELECT VDW BOUNDARY MISC KINETIC TOTAL TEMP POTENTIAL TOTALAVG TEMPAVG PRESSURE GPRESSURE VOLUME PRESSAVG GPRESSAVG
ENERGY: 0 1.9177 10.8659 5.7868 0.0000 -10845.8354 1529.1230 0.0000 0.0000 1742.1078 -7556.0341 296.6227 -9298.1419 -7556.0341 296.6227 536.5956 628.1605 30030.2281 536.5956 628.1605
ENERGY: 300000 1.7040 7.8531 5.8372 0.0000 -10582.3441 1448.5279 0.0000 0.0000 1777.3574 -7341.0646 302.6246 -9118.4220 -7444.7743 299.6318 275.4233 305.4377 30313.8118 583.3994 665.2809
ENERGY: 600000 3.6634 11.9768 6.5030 0.0000 -10727.6892 1465.5941 0.0000 0.0000 1776.6248 -7463.3271 302.4998 -9239.9519 -7440.9472 299.6229 498.4906 464.3165 30085.9976 327.5254 393.4666
ENERGY: 900000 2.3881 12.5961 3.6525 0.0000 -10677.9656 1539.3858 0.0000 0.0000 1743.7737 -7376.1693 296.9064 -9119.9430 -7436.7566 299.5791 926.9562 963.3922 30743.9091 258.0600 320.3499
ENERGY: 1200000 2.1971 12.7532 5.9025 0.0000 -10716.8633 1501.0115 0.0000 0.0000 1776.6846 -7418.3144 302.5100 -9194.9990 -7437.2746 300.1900 538.4065 586.8922 30538.2479 280.2516 340.3109
ENERGY: 1500000 3.0720 10.7943 7.5070 0.0000 -10716.6083 1430.3820 0.0000 0.0000 1742.0495 -7522.8035 296.6128 -9264.8529 -7451.6188 299.8544 -309.0211 -227.1932 30067.7129 253.0389 313.5546
TCL: Running FEP window  16: Lambda1 0.24999999999999967 Lambda2 0.19999999999999968 [dLambda -0.04999999999999999]
TCL: Setting parameter firsttimestep to 0
TCL: Setting parameter alchLambda to 0.24999999999999967
Info: NONBONDED TABLE R-SQUARED SPACING: 0.0625
Info: NONBONDED TABLE SIZE: 705 POINTS
TCL: Setting parameter alchLambda2 to 0.19999999999999968
Info: NONBONDED TABLE R-SQUARED SPACING: 0.0625
Info: NONBONDED TABLE SIZE: 705 POINTS
TCL: Running for 1500000 steps
ETITLE: TS BOND ANGLE DIHED IMPRP ELECT VDW BOUNDARY MISC KINETIC TOTAL TEMP POTENTIAL TOTALAVG TEMPAVG PRESSURE GPRESSURE VOLUME PRESSAVG GPRESSAVG
ENERGY: 0 3.0720 10.7943 7.5070 0.0000 -10716.6086 1430.8377 0.0000 0.0000 1741.1829 -7523.2146 296.4653 -9264.3975 -7523.2146 296.4653 -321.0083 -228.7466 30067.7129 -321.0083 -228.7466
ENERGY: 300000 2.4428 12.1905 9.1642 0.0000 -10847.4399 1633.1224 0.0000 0.0000 1785.3107 -7405.2093 303.9787 -9190.5200 -7511.3545 296.0727 1614.9537 1717.8171 30038.6856 369.7045 452.2076
ENERGY: 600000 3.9229 9.7789 5.1952 0.0000 -10539.6696 1337.0582 0.0000 0.0000 1781.3183 -7402.3961 303.2990 -9183.7144 -7477.3652 298.0740 -508.3885 -394.4796 30170.5595 84.6770 156.8127
ENERGY: 900000 2.1710 15.5362 6.1309 0.0000 -10548.5122 1401.8118 0.0000 0.0000 1779.7488 -7343.1136 303.0317 -9122.8624 -7448.9359 300.0438 177.8920 270.6257 30327.3873 36.9137 103.9160
ENERGY: 1200000 5.8068 5.8928 8.0243 0.0000 -10692.5196 1460.3459 0.0000 0.0000 1745.1494 -7467.3004 297.1406 -9212.4498 -7447.5294 300.1357 374.1374 349.3528 29620.8799 48.6460 101.4393
ENERGY: 1500000 3.2649 9.0349 5.8420 0.0000 -10737.7370 1477.1851 0.0000 0.0000 1812.2730 -7430.1370 308.5695 -9242.4100 -7438.4140 301.5172 609.8852 601.9471 29967.6744 101.3094 146.0882
TCL: Running FEP window  17: Lambda1 0.19999999999999968 Lambda2 0.1499999999999997 [dLambda -0.04999999999999999]
TCL: Setting parameter firsttimestep to 0
TCL: Setting parameter alchLambda to 0.19999999999999968
Info: NONBONDED TABLE R-SQUARED SPACING: 0.0625
Info: NONBONDED TABLE SIZE: 705 POINTS
TCL: Setting parameter alchLambda2 to 0.1499999999999997
Info: NONBONDED TABLE R-SQUARED SPACING: 0.0625
Info: NONBONDED TABLE SIZE: 705 POINTS
TCL: Running for 1500000 steps
ETITLE: TS BOND ANGLE DIHED IMPRP ELECT VDW BOUNDARY MISC KINETIC TOTAL TEMP POTENTIAL TOTALAVG TEMPAVG PRESSURE GPRESSURE VOLUME PRESSAVG GPRESSAVG
ENERGY: 0 3.2649 9.0349 5.8420 0.0000 -10737.7371 1477.2637 0.0000 0.0000 1811.3937 -7430.9379 308.4198 -9242.3316 -7430.9379 308.4198 507.6118 595.5948 29967.6744 507.6118 595.5948
ENERGY: 300000 4.7929 9.5389 4.9280 0.0000 -10519.8531 1371.6471 0.0000 0.0000 1792.6210 -7336.3251 305.2235 -9128.9461 -7427.1677 301.3513 -342.8326 -289.7091 30529.7569 -252.9771 -196.7325
ENERGY: 600000 6.2578 7.7085 6.4926 0.0000 -10687.0985 1484.9883 0.0000 0.0000 1738.8376 -7442.8136 296.0659 -9181.6512 -7448.3946 299.2436 -50.5430 52.1298 30927.2856 -283.0928 -224.3197
ENERGY: 900000 2.8334 8.6342 5.8024 0.0000 -10833.8107 1517.0346 0.0000 0.0000 1753.7908 -7545.7154 298.6120 -9299.5062 -7476.3480 298.8061 352.9982 443.9717 30178.1840 -145.4414 -71.6882
ENERGY: 1200000 2.1147 11.3353 4.9203 0.0000 -10770.6958 1477.2880 0.0000 0.0000 1764.9550 -7510.0825 300.5129 -9275.0374 -7479.3875 298.9621 64.6399 101.0440 30392.5570 -43.3162 26.2589
ENERGY: 1500000 2.8848 10.4321 7.6041 0.0000 -10564.4627 1403.0707 0.0000 0.0000 1697.3425 -7443.1285 289.0007 -9140.4710 -7465.7497 298.6343 -313.8069 -203.8033 30710.1985 -79.8447 -11.3069
TCL: Running FEP window  18: Lambda1 0.1499999999999997 Lambda2 0.09999999999999969 [dLambda -0.05 ]
TCL: Setting parameter firsttimestep to 0
TCL: Setting parameter alchLambda to 0.1499999999999997
Info: NONBONDED TABLE R-SQUARED SPACING: 0.0625
Info: NONBONDED TABLE SIZE: 705 POINTS
TCL: Setting parameter alchLambda2 to 0.09999999999999969
Info: NONBONDED TABLE R-SQUARED SPACING: 0.0625
Info: NONBONDED TABLE SIZE: 705 POINTS
TCL: Running for 1500000 steps
ETITLE: TS BOND ANGLE DIHED IMPRP ELECT VDW BOUNDARY MISC KINETIC TOTAL TEMP POTENTIAL TOTALAVG TEMPAVG PRESSURE GPRESSURE VOLUME PRESSAVG GPRESSAVG
ENERGY: 0 2.8848 10.4321 7.6040 0.0000 -10564.4615 1403.7892 0.0000 0.0000 1696.4252 -7443.3262 288.8445 -9139.7514 -7443.3262 288.8445 -290.6905 -202.6935 30710.1985 -290.6905 -202.6935
ENERGY: 300000 2.1765 11.6016 6.5345 0.0000 -10704.8363 1494.8653 0.0000 0.0000 1687.9287 -7501.7298 287.3978 -9189.6585 -7456.3834 292.3490 559.7280 687.9056 30036.6342 -80.2244 10.5107
ENERGY: 600000 2.6793 8.4743 7.4463 0.0000 -10630.6903 1363.7001 0.0000 0.0000 1785.5808 -7462.8096 304.0247 -9248.3903 -7456.8451 296.7758 -910.1765 -810.7830 30266.9042 -231.7261 -138.5379
ENERGY: 900000 2.4167 9.2013 5.6208 0.0000 -10627.1554 1390.0675 0.0000 0.0000 1736.7213 -7483.1278 295.7056 -9219.8492 -7461.1030 296.7532 -485.1274 -478.9627 30314.1224 -181.8520 -100.8637
ENERGY: 1200000 4.6076 10.1582 6.0808 0.0000 -10669.4941 1397.3831 0.0000 0.0000 1829.0812 -7422.1832 311.4314 -9251.2644 -7456.8618 297.4884 -472.4230 -465.8622 30239.3613 -200.0271 -134.7348
ENERGY: 1500000 2.5532 11.1569 5.0862 0.0000 -10749.7269 1440.4880 0.0000 0.0000 1751.1136 -7539.3290 298.1561 -9290.4426 -7456.2043 298.1360 -338.8186 -297.8831 30145.8849 -214.3915 -147.8915
TCL: Running FEP window  19: Lambda1 0.09999999999999969 Lambda2 0.049999999999999684 [dLambda -0.05 ]
TCL: Setting parameter firsttimestep to 0
TCL: Setting parameter alchLambda to 0.09999999999999969
Info: NONBONDED TABLE R-SQUARED SPACING: 0.0625
Info: NONBONDED TABLE SIZE: 705 POINTS
TCL: Setting parameter alchLambda2 to 0.049999999999999684
Info: NONBONDED TABLE R-SQUARED SPACING: 0.0625
Info: NONBONDED TABLE SIZE: 705 POINTS
TCL: Running for 1500000 steps
ETITLE: TS BOND ANGLE DIHED IMPRP ELECT VDW BOUNDARY MISC KINETIC TOTAL TEMP POTENTIAL TOTALAVG TEMPAVG PRESSURE GPRESSURE VOLUME PRESSAVG GPRESSAVG
ENERGY: 0 2.5532 11.1569 5.0862 0.0000 -10749.7268 1440.5996 0.0000 0.0000 1750.2190 -7540.1119 298.0038 -9290.3309 -7540.1119 298.0038 -378.3087 -300.6124 30145.8849 -378.3087 -300.6124
ENERGY: 300000 2.0020 11.4137 7.0532 0.0000 -10784.2181 1455.9494 0.0000 0.0000 1770.2618 -7537.5380 301.4164 -9307.7998 -7504.1758 300.9126 -223.2236 -108.8654 30191.3104 -193.4119 -112.0336
ENERGY: 600000 2.1748 9.2922 5.3102 0.0000 -10633.3874 1453.7285 0.0000 0.0000 1721.7003 -7441.1815 293.1480 -9162.8818 -7463.8897 300.2552 37.3831 68.6634 30176.3679 -161.7224 -95.1513
ENERGY: 900000 1.3326 14.1123 8.0753 0.0000 -10731.4235 1460.0480 0.0000 0.0000 1773.2251 -7474.6302 301.9210 -9247.8553 -7471.7546 300.1929 261.0771 326.8185 29923.5471 -286.1363 -220.2254
ENERGY: 1200000 2.8966 9.9967 6.8399 0.0000 -10647.2879 1481.9019 0.0000 0.0000 1826.6444 -7319.0085 311.0165 -9145.6529 -7461.3006 300.1672 369.7799 478.8276 30669.3960 -233.7856 -165.7953
ENERGY: 1500000 4.8866 10.9109 7.2667 0.0000 -10591.8590 1357.4040 0.0000 0.0000 1778.9752 -7432.4155 302.9000 -9211.3908 -7451.9985 300.0283 -476.0474 -422.5291 30123.5069 -259.0481 -190.2422
TCL: Running FEP window  20: Lambda1 0.049999999999999684 Lambda2 0.0    [dLambda -0.049999999999999684]
TCL: Setting parameter firsttimestep to 0
TCL: Setting parameter alchLambda to 0.049999999999999684
Info: NONBONDED TABLE R-SQUARED SPACING: 0.0625
Info: NONBONDED TABLE SIZE: 705 POINTS
TCL: Setting parameter alchLambda2 to 0.0
Info: NONBONDED TABLE R-SQUARED SPACING: 0.0625
Info: NONBONDED TABLE SIZE: 705 POINTS
TCL: Running for 1500000 steps
ETITLE: TS BOND ANGLE DIHED IMPRP ELECT VDW BOUNDARY MISC KINETIC TOTAL TEMP POTENTIAL TOTALAVG TEMPAVG PRESSURE GPRESSURE VOLUME PRESSAVG GPRESSAVG
ENERGY: 0 4.8866 10.9109 7.2667 0.0000 -10591.8600 1357.3071 0.0000 0.0000 1778.0900 -7433.3987 302.7493 -9211.4887 -7433.3987 302.7493 -494.1410 -423.2897 30123.5069 -494.1410 -423.2897
ENERGY: 300000 1.9033 10.5137 6.2000 0.0000 -10581.5344 1388.9645 0.0000 0.0000 1726.6554 -7447.2975 293.9917 -9173.9529 -7414.4870 301.6184 -584.0967 -508.5208 30611.0336 -575.3438 -514.3554
ENERGY: 600000 3.6402 12.1304 5.7058 0.0000 -10632.9373 1431.9552 0.0000 0.0000 1768.0161 -7411.4897 301.0341 -9179.5057 -7414.6939 302.4480 193.6830 194.0729 30079.0276 -441.8963 -393.9336
ENERGY: 900000 0.9957 7.2933 3.9122 0.0000 -10774.2115 1517.7759 0.0000 0.0000 1752.9527 -7491.2817 298.4693 -9244.2344 -7436.4051 301.3658 908.4322 868.6322 29618.5699 -45.3529 3.2056
ENERGY: 1200000 1.7125 8.4376 5.7147 0.0000 -10656.7108 1480.3095 0.0000 0.0000 1732.0569 -7428.4796 294.9114 -9160.5365 -7442.5718 300.0080 495.5781 583.7032 29992.4598 43.6873 102.0314
ENERGY: 1500000 1.2365 11.0165 5.9032 0.0000 -10486.9019 1371.8949 0.0000 0.0000 1818.5793 -7278.2715 309.6433 -9096.8508 -7426.9066 301.2699 14.4751 59.4557 30076.9012 59.9028 119.0939
TCL: Exiting due to exit command.
