Info: SIMULATION PARAMETERS:
Info: TIMESTEP               2
Info: NUMBER OF STEPS        0
Info: STEPS PER CYCLE        10
Info: PERIODIC CELL BASIS 1  31.5132 0 0
Info: PERIODIC CELL BASIS 2  0 30.9662 0
Info: PERIODIC CELL BASIS 3  0 0 31.3666
Info: PERIODIC CELL CENTER   0 0 0
Info: WRAPPING WATERS AROUND PERIODIC BOUNDARIES ON OUTPUT.
Info: WRAPPING ALL CLUSTERS AROUND PERIODIC BOUNDARIES ON OUTPUT.
Info: FIRST LDB TIMESTEP     50
Info: LAST LDB TIMESTEP     -1
Info: HOM BACKGROUND SCALING 1
Info: PME BACKGROUND SCALING 1
Info: MIN ATOMS PER PATCH    40
Info: EMPTY PATCH LOAD       40 ATOMS
Info: VELOCITY FILE          mobley_8916409_equil.vel
Info: CENTER OF MASS MOVING INITIALLY? NO
Info: DIELECTRIC             1
Info: EXCLUDE                SCALED ONE-FOUR
Info: 1-4 ELECTROSTATICS SCALED BY 0.833333
Info: MODIFIED 1-4 VDW PARAMETERS WILL BE USED
Info: DCD FILENAME           mobley_8916409_prod.dcd
Info: DCD FREQUENCY          100000
Info: DCD FIRST STEP         100000
Info: DCD FILE WILL CONTAIN UNIT CELL DATA
Info: XST FILENAME           mobley_8916409_prod.xst
Info: XST FREQUENCY          100000
Info: NO VELOCITY DCD OUTPUT
Info: NO FORCE DCD OUTPUT
Info: OUTPUT FILENAME        mobley_8916409_prod
Info: BINARY OUTPUT FILES WILL BE USED
Info: RESTART FILENAME       mobley_8916409_prod.restart
Info: RESTART FREQUENCY      100000
Info: BINARY RESTART FILES WILL BE USED
Info: CUTOFF                 9
Info: PAIRLIST DISTANCE      11
Info: PAIRLIST SHRINK RATE   0.01
Info: PAIRLIST GROW RATE     0.01
Info: PAIRLIST TRIGGER       0.3
Info: PAIRLISTS PER CYCLE    2
Info: PAIRLISTS ENABLED
Info: MARGIN                 2
Info: HYDROGEN GROUP CUTOFF  2.5
Info: PATCH DIMENSION        15.5
Info: ENERGY OUTPUT STEPS    100000
Info: ENERGY EVALUATION STEPS    100000
Info: OUTPUT ENERGY PRECISION 4
Info: CROSSTERM ENERGY INCLUDED IN DIHEDRAL
Info: TIMING OUTPUT STEPS    1000000
Info: PRESSURE OUTPUT STEPS  100000
Info: ALCHEMICAL FEP ON
Info: FEP CURRENT LAMBDA VALUE     0
Info: FEP COMPARISON LAMBDA VALUE  0.05
Info: FEP INTRA-ALCHEMICAL NON-BONDED INTERACTIONS WILL BE RETAINED
Info: FEP INTRA-ALCHEMICAL BONDED INTERACTIONS WILL BE RETAINED
Info: FEP VDW SHIFTING COEFFICIENT 5
Info: FEP ELEC. ACTIVE FOR ANNIHILATED PARTICLES BETWEEN LAMBDA = 0 AND LAMBDA = 0.5
Info: FEP ELEC. ACTIVE FOR EXNIHILATED PARTICLES BETWEEN LAMBDA = 0.5 AND LAMBDA = 1
Info: FEP VDW ACTIVE FOR ANNIHILATED PARTICLES BETWEEN LAMBDA = 0 AND LAMBDA = 1
Info: FEP VDW ACTIVE FOR EXNIHILATED PARTICLES BETWEEN LAMBDA = 0 AND LAMBDA = 1
Info: FEP BOND ACTIVE FOR ANNIHILATED PARTICLES BETWEEN LAMBDA = 1 AND LAMBDA = 1
Info: FEP BOND ACTIVE FOR EXNIHILATED PARTICLES BETWEEN LAMBDA = 0 AND LAMBDA = 0
Info: LANGEVIN DYNAMICS ACTIVE
Info: LANGEVIN TEMPERATURE   300
Info: LANGEVIN USING BBK INTEGRATOR
Info: LANGEVIN DAMPING COEFFICIENT IS 1 INVERSE PS
Info: LANGEVIN DYNAMICS APPLIED TO HYDROGENS
Info: LANGEVIN PISTON PRESSURE CONTROL ACTIVE
Info:        TARGET PRESSURE IS 1.01325 BAR
Info:     OSCILLATION PERIOD IS 50 FS
Info:             DECAY TIME IS 25 FS
Info:     PISTON TEMPERATURE IS 300 K
Info:       PRESSURE CONTROL IS GROUP-BASED
Info:    INITIAL STRAIN RATE IS -0.000406914 -0.000406914 -0.000406914
Info:       CELL FLUCTUATION IS ISOTROPIC
Info: PARTICLE MESH EWALD (PME) ACTIVE
Info: PME TOLERANCE               1e-06
Info: PME EWALD COEFFICIENT       0.348832
Info: PME INTERPOLATION ORDER     4
Info: PME GRID DIMENSIONS         32 32 32
Info: PME MAXIMUM GRID SPACING    1
Info: PME CALCULATION WILL BE PERFORMED ON GPU
Info: FULL ELECTROSTATIC EVALUATION FREQUENCY      2
Info: USING VERLET I (r-RESPA) MTS SCHEME.
Info: C1 SPLITTING OF LONG RANGE ELECTROSTATICS
Info: PLACING ATOMS IN PATCHES BY HYDROGEN GROUPS
Info: RIGID BONDS TO HYDROGEN : ALL
Info:         ERROR TOLERANCE : 1e-08
Info:          MAX ITERATIONS : 100
Info: RIGID WATER USING SETTLE ALGORITHM
Info: RANDOM NUMBER SEED     1744099873
Info: USE HYDROGEN BONDS?    NO
Info: Using AMBER format force field!
Info: AMBER PARM FILE        mobley_8916409.prmtop
Info: COORDINATE PDB         mobley_8916409.pdb
Info: Exclusions will be read from PARM file!
Info: SCNB (VDW SCALING)     2
Info: USING ARITHMETIC MEAN TO COMBINE L-J SIGMA PARAMETERS
Info: BINARY COORDINATES     mobley_8916409_equil.coor
Info: SUMMARY OF PARAMETERS:
Info: 13 BONDS
Info: 22 ANGLES
Info:   22 HARMONIC
Info:   0 COSINE-BASED
Info: 20 DIHEDRAL
Info: 0 IMPROPER
Info: 0 CROSSTERM
Info: 0 VDW
Info: 55 VDW_PAIRS
Info: 0 NBTHOLE_PAIRS
Info: To read alchdata from file: mobley_8916409.pdb
Info: To read alchflag data from column: 5
Info: STRUCTURE SUMMARY:
Info: 2957 ATOMS
Info: 2956 BONDS
Info: 65 ANGLES
Info: 91 DIHEDRALS
Info: 0 IMPROPERS
Info: 0 CROSSTERMS
Info: 3088 EXCLUSIONS
Info: 2938 RIGID BONDS
Info: ALCH: 0 ATOMS TO DISAPPEAR IN FINAL STATE
Info: ALCH: 38 ATOMS TO APPEAR IN FINAL STATE
Info: 5933 DEGREES OF FREEDOM
Info: 992 HYDROGEN GROUPS
Info: 4 ATOMS IN LARGEST HYDROGEN GROUP
Info: 992 MIGRATION GROUPS
Info: 4 ATOMS IN LARGEST MIGRATION GROUP
Info: TOTAL MASS = 17859.9 amu
Info: TOTAL CHARGE = 7.82311e-08 e
Info: MASS DENSITY = 0.968928 g/cm^3
Info: ATOM DENSITY = 0.096606 atoms/A^3
Info: ADDED 0 IMPLICIT EXCLUSIONS
Info: NONBONDED TABLE R-SQUARED SPACING: 0.0625
Info: NONBONDED TABLE SIZE: 705 POINTS
Info: REMOVING COM VELOCITY 0.0317964 -0.0867072 -0.0770264
Info: Use 3D box decompostion in PME FFT.
Info: Updated CUDA force table with 4096 elements.
Info: Updated CUDA LJ table with 10 x 10 elements.
Info: Found 41 unique exclusion lists needing 172 bytes
TCL: Running for 1500000 steps
ETITLE: TS BOND ANGLE DIHED IMPRP ELECT VDW BOUNDARY MISC KINETIC TOTAL TEMP POTENTIAL TOTALAVG TEMPAVG PRESSURE GPRESSURE VOLUME PRESSAVG GPRESSAVG
ENERGY: 0 3.7646 19.2160 22.6556 0.0000 -10618.5623 1408.9513 0.0000 0.0000 1755.5871 -7408.3877 297.8094 -9163.9748 -7408.3877 297.8094 -203.5556 -140.5147 30608.8567 -203.5556 -140.5147
ENERGY: 300000 2.1205 17.6910 27.9554 0.0000 -10676.0248 1367.0038 0.0000 0.0000 1802.6656 -7458.5884 305.7956 -9261.2540 -7421.8608 303.0010 -766.4906 -729.8736 30324.5369 -101.2069 -35.2072
ENERGY: 600000 7.8745 12.9377 22.3090 0.0000 -10753.7071 1412.0455 0.0000 0.0000 1738.0762 -7560.4641 294.8389 -9298.5403 -7443.7258 301.0970 -627.4671 -585.1246 29970.0532 -99.4625 -39.0937
ENERGY: 900000 6.1033 18.0408 23.5384 0.0000 -10612.1298 1394.4762 0.0000 0.0000 1743.3644 -7426.6068 295.7360 -9169.9712 -7451.9122 299.4076 -304.2896 -245.2246 30296.9475 -167.7884 -103.0623
ENERGY: 1200000 4.5381 15.7408 23.5322 0.0000 -10740.3929 1467.0284 0.0000 0.0000 1789.4474 -7440.1060 303.5533 -9229.5535 -7442.5936 300.0620 715.1274 724.8833 29572.9615 -51.4344 1.3401
ENERGY: 1500000 5.5171 15.6070 28.1237 0.0000 -10752.3091 1501.7977 0.0000 0.0000 1756.2661 -7444.9975 297.9246 -9201.2636 -7448.2479 299.8388 581.3173 691.4469 30568.7873 -74.7537 -20.7560
TCL: Running FEP window   2: Lambda1 0.05   Lambda2 0.1    [dLambda 0.05  ]
TCL: Setting parameter firsttimestep to 0
TCL: Setting parameter alchLambda to 0.05
Info: NONBONDED TABLE R-SQUARED SPACING: 0.0625
Info: NONBONDED TABLE SIZE: 705 POINTS
TCL: Setting parameter alchLambda2 to 0.1
Info: NONBONDED TABLE R-SQUARED SPACING: 0.0625
Info: NONBONDED TABLE SIZE: 705 POINTS
TCL: Running for 1500000 steps
ETITLE: TS BOND ANGLE DIHED IMPRP ELECT VDW BOUNDARY MISC KINETIC TOTAL TEMP POTENTIAL TOTALAVG TEMPAVG PRESSURE GPRESSURE VOLUME PRESSAVG GPRESSAVG
ENERGY: 0 5.5171 15.6070 28.1237 0.0000 -10752.3098 1510.2773 0.0000 0.0000 1755.4047 -7437.3800 297.7785 -9192.7847 -7437.3800 297.7785 616.2426 705.2459 30568.7873 616.2426 705.2459
ENERGY: 300000 7.3408 16.3579 21.7890 0.0000 -10734.2492 1418.8057 0.0000 0.0000 1803.6275 -7466.3283 305.9588 -9269.9559 -7434.5066 301.6793 -496.4826 -435.5057 30395.7179 163.3093 247.3540
ENERGY: 600000 7.0596 15.6619 24.2232 0.0000 -10673.0994 1345.2392 0.0000 0.0000 1815.6961 -7465.2195 308.0060 -9280.9156 -7455.0245 301.4016 -663.3543 -617.5073 30194.2474 37.8113 109.1779
ENERGY: 900000 5.7398 15.1677 23.5249 0.0000 -10773.4836 1445.1446 0.0000 0.0000 1756.2926 -7527.6141 297.9291 -9283.9067 -7470.2945 301.1770 -69.8443 17.6909 29890.3644 -19.0475 51.7755
ENERGY: 1200000 5.2190 17.7563 23.7921 0.0000 -10682.0779 1436.1900 0.0000 0.0000 1804.0840 -7395.0365 306.0362 -9199.1205 -7456.6840 301.5943 103.5464 120.8784 30405.6540 46.0312 109.8027
ENERGY: 1500000 3.2808 17.5288 24.0654 0.0000 -10765.3436 1460.0349 0.0000 0.0000 1788.0766 -7472.3571 303.3208 -9260.4337 -7453.5982 301.9768 489.0152 509.2779 29492.0454 64.3201 120.9460
TCL: Running FEP window   3: Lambda1 0.1    Lambda2 0.15000000000000002 [dLambda 0.05000000000000002]
TCL: Setting parameter firsttimestep to 0
TCL: Setting parameter alchLambda to 0.1
Info: NONBONDED TABLE R-SQUARED SPACING: 0.0625
Info: NONBONDED TABLE SIZE: 705 POINTS
TCL: Setting parameter alchLambda2 to 0.15000000000000002
Info: NONBONDED TABLE R-SQUARED SPACING: 0.0625
Info: NONBONDED TABLE SIZE: 705 POINTS
TCL: Running for 1500000 steps
ETITLE: TS BOND ANGLE DIHED IMPRP ELECT VDW BOUNDARY MISC KINETIC TOTAL TEMP POTENTIAL TOTALAVG TEMPAVG PRESSURE GPRESSURE VOLUME PRESSAVG GPRESSAVG
ENERGY: 0 3.2808 17.5288 24.0654 0.0000 -10765.3429 1463.4795 0.0000 0.0000 1787.2279 -7469.7606 303.1768 -9256.9884 -7469.7606 303.1768 452.3440 531.5180 29492.0454 452.3440 531.5180
ENERGY: 300000 4.3896 13.0721 24.0165 0.0000 -10597.1350 1324.1767 0.0000 0.0000 1793.4104 -7438.0697 304.2256 -9231.4801 -7470.9310 302.1665 -741.6117 -724.2024 30318.0189 -258.4816 -216.9355
ENERGY: 600000 6.2908 20.7292 23.1440 0.0000 -10664.9430 1419.4963 0.0000 0.0000 1755.8899 -7439.3928 297.8608 -9195.2828 -7470.8043 300.1678 75.3772 71.1732 29871.5027 -14.1551 31.8310
ENERGY: 900000 8.2407 15.3554 29.8210 0.0000 -10717.6253 1415.5837 0.0000 0.0000 1849.8531 -7398.7714 313.8003 -9248.6246 -7461.7145 301.5390 -373.7147 -233.3879 30043.3339 -118.2580 -63.6914
ENERGY: 1200000 5.5891 20.3826 24.6985 0.0000 -10766.5776 1433.6831 0.0000 0.0000 1724.7815 -7557.4428 292.5837 -9282.2243 -7470.0931 300.3401 -54.4284 17.0116 29714.4894 -181.8542 -131.6715
ENERGY: 1500000 8.6928 20.7041 25.8165 0.0000 -10601.3395 1395.8891 0.0000 0.0000 1785.9939 -7364.2430 302.9675 -9150.2369 -7456.0931 300.4741 250.4463 298.4167 30028.7125 -170.1201 -112.4283
TCL: Running FEP window   4: Lambda1 0.15000000000000002 Lambda2 0.2    [dLambda 0.04999999999999999]
TCL: Setting parameter firsttimestep to 0
TCL: Setting parameter alchLambda to 0.15000000000000002
Info: NONBONDED TABLE R-SQUARED SPACING: 0.0625
Info: NONBONDED TABLE SIZE: 705 POINTS
TCL: Setting parameter alchLambda2 to 0.2
Info: NONBONDED TABLE R-SQUARED SPACING: 0.0625
Info: NONBONDED TABLE SIZE: 705 POINTS
TCL: Running for 1500000 steps
ETITLE: TS BOND ANGLE DIHED IMPRP ELECT VDW BOUNDARY MISC KINETIC TOTAL TEMP POTENTIAL TOTALAVG TEMPAVG PRESSURE GPRESSURE VOLUME PRESSAVG GPRESSAVG
ENERGY: 0 8.6928 20.7041 25.8165 0.0000 -10601.3389 1397.5852 0.0000 0.0000 1785.0754 -7363.4648 302.8117 -9148.5402 -7363.4648 302.8117 230.3442 315.3121 30028.7125 230.3442 315.3121
ENERGY: 300000 1.7320 11.4977 24.1312 0.0000 -10690.9499 1478.3755 0.0000 0.0000 1737.8203 -7437.3934 294.7955 -9175.2137 -7443.1229 297.2181 384.0493 463.0712 30226.7730 174.5138 233.4971
ENERGY: 600000 8.2043 21.3288 22.2579 0.0000 -10631.7021 1411.1885 0.0000 0.0000 1780.4716 -7388.2510 302.0307 -9168.7226 -7446.9564 299.8915 308.5127 321.2580 30002.9478 184.8454 238.5021
ENERGY: 900000 3.1304 16.1694 26.1802 0.0000 -10806.4223 1504.7650 0.0000 0.0000 1782.5088 -7473.6685 302.3763 -9256.1773 -7461.1757 300.5560 630.3567 706.1224 30042.4638 165.0935 228.8338
ENERGY: 1200000 6.1773 17.4123 25.6278 0.0000 -10661.7153 1433.0953 0.0000 0.0000 1754.1134 -7425.2891 297.5594 -9179.4025 -7464.5718 300.4519 215.4390 211.5952 30488.3078 146.6284 202.1957
ENERGY: 1500000 7.8854 16.9347 25.6536 0.0000 -10764.1664 1478.7921 0.0000 0.0000 1746.7367 -7488.1640 296.3081 -9234.9006 -7465.6707 300.3940 427.1717 490.1930 30030.9424 141.3414 201.2802
TCL: Running FEP window   5: Lambda1 0.2    Lambda2 0.25   [dLambda 0.04999999999999999]
TCL: Setting parameter firsttimestep to 0
TCL: Setting parameter alchLambda to 0.2
Info: NONBONDED TABLE R-SQUARED SPACING: 0.0625
Info: NONBONDED TABLE SIZE: 705 POINTS
TCL: Setting parameter alchLambda2 to 0.25
Info: NONBONDED TABLE R-SQUARED SPACING: 0.0625
Info: NONBONDED TABLE SIZE: 705 POINTS
TCL: Running for 1500000 steps
ETITLE: TS BOND ANGLE DIHED IMPRP ELECT VDW BOUNDARY MISC KINETIC TOTAL TEMP POTENTIAL TOTALAVG TEMPAVG PRESSURE GPRESSURE VOLUME PRESSAVG GPRESSAVG
ENERGY: 0 7.8854 16.9347 25.6536 0.0000 -10764.1657 1478.9445 0.0000 0.0000 1745.8704 -7488.8772 296.1611 -9234.7476 -7488.8772 296.1611 405.1105 497.3389 30030.9424 405.1105 497.3389
ENERGY: 300000 6.8245 20.1974 25.3396 0.0000 -10711.7034 1449.7423 0.0000 0.0000 1769.1611 -7440.4384 300.1120 -9209.5995 -7436.2955 299.3183 208.2827 221.8635 30063.4929 211.3545 257.6225
ENERGY: 600000 4.5146 20.1976 24.7972 0.0000 -10849.3051 1466.6445 0.0000 0.0000 1729.1888 -7603.9624 293.3313 -9333.1512 -7449.4273 300.8283 63.4183 140.5339 29932.4589 257.6628 312.4449
ENERGY: 900000 4.3050 13.5087 23.7144 0.0000 -10563.8402 1343.0248 0.0000 0.0000 1785.9042 -7393.3830 302.9523 -9179.2873 -7437.4545 301.5866 -749.2692 -652.3597 30488.4770 154.9336 215.3275
ENERGY: 1200000 6.8775 17.8620 27.1703 0.0000 -10670.4135 1464.3775 0.0000 0.0000 1738.5229 -7415.6034 294.9147 -9154.1262 -7444.6184 300.1135 63.4498 192.1396 30356.7313 102.4362 164.5433
ENERGY: 1500000 1.9721 13.7061 22.4394 0.0000 -10560.9030 1351.6301 0.0000 0.0000 1759.2310 -7411.9242 298.4275 -9171.1552 -7438.3054 300.0191 -493.8185 -375.1552 30181.4233 6.9083 77.3162
TCL: Running FEP window   6: Lambda1 0.25   Lambda2 0.3    [dLambda 0.04999999999999999]
TCL: Setting parameter firsttimestep to 0
TCL: Setting parameter alchLambda to 0.25
Info: NONBONDED TABLE R-SQUARED SPACING: 0.0625
Info: NONBONDED TABLE SIZE: 705 POINTS
TCL: Setting parameter alchLambda2 to 0.3
Info: NONBONDED TABLE R-SQUARED SPACING: 0.0625
Info: NONBONDED TABLE SIZE: 705 POINTS
TCL: Running for 1500000 steps
ETITLE: TS BOND ANGLE DIHED IMPRP ELECT VDW BOUNDARY MISC KINETIC TOTAL TEMP POTENTIAL TOTALAVG TEMPAVG PRESSURE GPRESSURE VOLUME PRESSAVG GPRESSAVG
ENERGY: 0 1.9721 13.7061 22.4394 0.0000 -10560.9037 1352.2576 0.0000 0.0000 1758.3534 -7412.1750 298.2787 -9170.5284 -7412.1750 298.2787 -455.1466 -364.0693 30181.4233 -455.1466 -364.0693
ENERGY: 300000 7.6327 14.1667 22.2208 0.0000 -10649.0095 1413.6938 0.0000 0.0000 1785.1132 -7406.1824 302.8181 -9191.2956 -7459.6201 298.6140 -111.5422 -79.8031 30415.0901 -166.4699 -90.9384
ENERGY: 600000 6.0191 18.4078 22.9626 0.0000 -10764.4399 1485.0611 0.0000 0.0000 1754.1389 -7477.8503 297.5637 -9231.9893 -7463.4596 299.3230 518.9236 493.9856 30108.3305 -177.8485 -120.4990
ENERGY: 900000 9.2197 22.5285 21.0808 0.0000 -10613.3763 1381.2307 0.0000 0.0000 1764.4357 -7414.8809 299.3104 -9179.3166 -7460.8999 299.1818 -430.9637 -346.8592 30294.1972 -177.6493 -111.7481
ENERGY: 1200000 3.5839 17.9844 23.4040 0.0000 -10683.4006 1360.7396 0.0000 0.0000 1800.1683 -7477.5205 305.3719 -9277.6887 -7455.5514 298.8411 -736.2186 -670.3757 30553.8435 -279.5750 -220.7487
ENERGY: 1500000 6.7806 18.5095 25.8991 0.0000 -10734.6160 1481.8969 0.0000 0.0000 1795.6998 -7405.8300 304.6139 -9201.5298 -7455.4488 299.2934 626.1458 721.8364 29871.7011 -236.8123 -178.7416
TCL: Running FEP window   7: Lambda1 0.3    Lambda2 0.35   [dLambda 0.04999999999999999]
TCL: Setting parameter firsttimestep to 0
TCL: Setting parameter alchLambda to 0.3
Info: NONBONDED TABLE R-SQUARED SPACING: 0.0625
Info: NONBONDED TABLE SIZE: 705 POINTS
TCL: Setting parameter alchLambda2 to 0.35
Info: NONBONDED TABLE R-SQUARED SPACING: 0.0625
Info: NONBONDED TABLE SIZE: 705 POINTS
TCL: Running for 1500000 steps
ETITLE: TS BOND ANGLE DIHED IMPRP ELECT VDW BOUNDARY MISC KINETIC TOTAL TEMP POTENTIAL TOTALAVG TEMPAVG PRESSURE GPRESSURE VOLUME PRESSAVG GPRESSAVG
ENERGY: 0 6.7806 18.5095 25.8991 0.0000 -10734.6156 1482.5008 0.0000 0.0000 1794.8332 -7406.0923 304.4669 -9200.9255 -7406.0923 304.4669 641.4056 736.7091 29871.7011 641.4056 736.7091
ENERGY: 300000 1.9543 17.4970 25.9376 0.0000 -10735.5098 1477.3650 0.0000 0.0000 1758.5667 -7454.1892 298.3149 -9212.7560 -7451.7023 296.8743 773.5899 755.7363 29930.7403 169.4833 203.1403
ENERGY: 600000 4.0093 15.2952 24.3332 0.0000 -10711.8848 1470.9332 0.0000 0.0000 1799.6637 -7397.6502 305.2864 -9197.3139 -7457.4019 297.9800 246.5936 332.6420 30378.9641 236.6507 275.9401
ENERGY: 900000 8.4794 18.3279 26.7348 0.0000 -10716.5324 1472.9082 0.0000 0.0000 1754.6134 -7435.4689 297.6442 -9190.0823 -7444.0218 298.7687 -0.3427 104.2891 30695.3762 226.0537 279.2545
ENERGY: 1200000 6.6786 15.1238 27.7750 0.0000 -10634.6275 1379.1269 0.0000 0.0000 1739.1896 -7466.7336 295.0278 -9205.9232 -7441.6641 298.3753 -588.1190 -479.5846 30660.0869 125.9855 195.6991
ENERGY: 1500000 6.7095 19.4188 24.0973 0.0000 -10637.7344 1417.5385 0.0000 0.0000 1777.9679 -7392.0023 301.6060 -9169.9702 -7436.1640 298.8010 -159.6723 -64.6378 30592.9644 36.5273 99.6896
TCL: Running FEP window   8: Lambda1 0.35   Lambda2 0.39999999999999997 [dLambda 0.04999999999999999]
TCL: Setting parameter firsttimestep to 0
TCL: Setting parameter alchLambda to 0.35
Info: NONBONDED TABLE R-SQUARED SPACING: 0.0625
Info: NONBONDED TABLE SIZE: 705 POINTS
TCL: Setting parameter alchLambda2 to 0.39999999999999997
Info: NONBONDED TABLE R-SQUARED SPACING: 0.0625
Info: NONBONDED TABLE SIZE: 705 POINTS
TCL: Running for 1500000 steps
ETITLE: TS BOND ANGLE DIHED IMPRP ELECT VDW BOUNDARY MISC KINETIC TOTAL TEMP POTENTIAL TOTALAVG TEMPAVG PRESSURE GPRESSURE VOLUME PRESSAVG GPRESSAVG
ENERGY: 0 6.7095 19.4188 24.0973 0.0000 -10637.7337 1418.1163 0.0000 0.0000 1777.1038 -7392.2880 301.4594 -9169.3918 -7392.2880 301.4594 -130.1888 -52.7469 30592.9644 -130.1888 -52.7469
ENERGY: 300000 7.3096 18.8755 28.1930 0.0000 -10599.6027 1363.9384 0.0000 0.0000 1776.9564 -7404.3297 301.4344 -9181.2862 -7434.4432 297.6738 -208.7685 -149.3593 30245.6696 -298.0778 -238.7429
ENERGY: 600000 6.8602 16.9300 24.9105 0.0000 -10671.6331 1405.0650 0.0000 0.0000 1746.0293 -7471.8381 296.1881 -9217.8673 -7414.9822 299.6079 -181.3516 -189.2504 30219.9835 -133.9977 -85.3866
ENERGY: 900000 2.5029 18.9630 25.2548 0.0000 -10638.6469 1441.2297 0.0000 0.0000 1770.6533 -7380.0433 300.3652 -9150.6966 -7417.4371 299.2306 211.7355 215.8718 30863.2323 -160.4442 -116.7696
ENERGY: 1200000 3.8528 17.1362 26.1741 0.0000 -10615.7104 1397.3098 0.0000 0.0000 1770.7439 -7400.4935 300.3805 -9171.2374 -7413.7348 299.5749 -34.5533 60.9612 30503.5393 -156.8133 -104.6324
ENERGY: 1500000 5.3207 13.3236 24.5660 0.0000 -10535.9315 1333.6983 0.0000 0.0000 1730.0523 -7428.9707 293.4778 -9159.0230 -7419.9710 299.2745 -638.9272 -525.4427 30550.4426 -181.0668 -129.2295
TCL: Running FEP window   9: Lambda1 0.39999999999999997 Lambda2 0.44999999999999996 [dLambda 0.04999999999999999]
TCL: Setting parameter firsttimestep to 0
TCL: Setting parameter alchLambda to 0.39999999999999997
Info: NONBONDED TABLE R-SQUARED SPACING: 0.0625
Info: NONBONDED TABLE SIZE: 705 POINTS
TCL: Setting parameter alchLambda2 to 0.44999999999999996
Info: NONBONDED TABLE R-SQUARED SPACING: 0.0625
Info: NONBONDED TABLE SIZE: 705 POINTS
TCL: Running for 1500000 steps
ETITLE: TS BOND ANGLE DIHED IMPRP ELECT VDW BOUNDARY MISC KINETIC TOTAL TEMP POTENTIAL TOTALAVG TEMPAVG PRESSURE GPRESSURE VOLUME PRESSAVG GPRESSAVG
ENERGY: 0 5.3207 13.3236 24.5660 0.0000 -10535.9334 1333.5311 0.0000 0.0000 1729.1613 -7430.0308 293.3267 -9159.1921 -7430.0308 293.3267 -616.4433 -515.5702 30550.4426 -616.4433 -515.5702
ENERGY: 300000 6.5764 13.4921 26.6348 0.0000 -10712.1912 1418.7363 0.0000 0.0000 1769.6316 -7477.1200 300.1919 -9246.7516 -7418.8673 296.9159 -224.7540 -173.0361 30420.9378 -266.5145 -189.2694
ENERGY: 600000 6.4656 16.0247 24.4410 0.0000 -10757.5671 1459.5032 0.0000 0.0000 1804.2309 -7446.9016 306.0611 -9251.1325 -7445.7486 296.3659 196.4616 265.8989 30076.8316 -61.4632 13.9481
ENERGY: 900000 2.9109 16.7950 23.4597 0.0000 -10814.7740 1510.4732 0.0000 0.0000 1789.6170 -7471.5182 303.5821 -9261.1352 -7441.8673 299.1522 630.6389 704.6190 30000.9337 -2.0206 69.1608
ENERGY: 1200000 6.4174 18.7971 23.0113 0.0000 -10810.2881 1477.3312 0.0000 0.0000 1759.4911 -7525.2399 298.4717 -9284.7310 -7448.2546 298.8665 645.6884 604.8491 29826.0508 56.0963 118.0214
ENERGY: 1500000 6.1574 18.5741 23.7555 0.0000 -10729.7220 1496.6831 0.0000 0.0000 1713.2259 -7471.3259 290.6235 -9184.5519 -7454.1810 299.1973 307.8213 353.9702 30478.5680 81.8716 143.7996
TCL: Running FEP window  10: Lambda1 0.44999999999999996 Lambda2 0.49999999999999994 [dLambda 0.04999999999999999]
TCL: Setting parameter firsttimestep to 0
TCL: Setting parameter alchLambda to 0.44999999999999996
Info: NONBONDED TABLE R-SQUARED SPACING: 0.0625
Info: NONBONDED TABLE SIZE: 705 POINTS
TCL: Setting parameter alchLambda2 to 0.49999999999999994
Info: NONBONDED TABLE R-SQUARED SPACING: 0.0625
Info: NONBONDED TABLE SIZE: 705 POINTS
TCL: Running for 1500000 steps
ETITLE: TS BOND ANGLE DIHED IMPRP ELECT VDW BOUNDARY MISC KINETIC TOTAL TEMP POTENTIAL TOTALAVG TEMPAVG PRESSURE GPRESSURE VOLUME PRESSAVG GPRESSAVG
ENERGY: 0 6.1574 18.5740 23.7555 0.0000 -10729.7228 1496.0175 0.0000 0.0000 1712.3412 -7472.8770 290.4734 -9185.2183 -7472.8770 290.4734 283.7451 357.1921 30478.5680 283.7451 357.1921
ENERGY: 300000 12.1069 19.3458 25.9477 0.0000 -10591.7485 1371.4642 0.0000 0.0000 1745.9146 -7416.9693 296.1686 -9162.8838 -7481.5353 294.6143 -447.5823 -370.9170 30517.1493 -94.8425 -25.0806
ENERGY: 600000 5.4214 13.2722 25.4753 0.0000 -10648.8331 1324.3677 0.0000 0.0000 1800.9462 -7479.3504 305.5039 -9280.2966 -7442.1994 299.4481 -1069.5370 -970.1190 30353.6581 -206.0828 -141.5492
ENERGY: 900000 9.6743 12.7292 26.5460 0.0000 -10802.9792 1444.2304 0.0000 0.0000 1761.5637 -7548.2356 298.8233 -9309.7993 -7458.0950 299.6446 -114.7049 -73.0132 30058.5987 -135.3273 -69.9335
ENERGY: 1200000 7.5447 22.3045 22.5266 0.0000 -10799.1554 1476.2905 0.0000 0.0000 1786.1065 -7484.3825 302.9866 -9270.4890 -7447.8507 300.3023 216.3993 329.2572 29935.3779 -10.5863 53.8535
ENERGY: 1500000 7.1300 14.5110 26.0643 0.0000 -10636.2225 1383.8464 0.0000 0.0000 1792.4324 -7412.2383 304.0597 -9204.6707 -7451.6796 300.4104 -353.4463 -246.8637 30657.6770 -57.2406 8.6274
TCL: Running FEP window  11: Lambda1 0.49999999999999994 Lambda2 0.5499999999999999 [dLambda 0.04999999999999999]
TCL: Setting parameter firsttimestep to 0
TCL: Setting parameter alchLambda to 0.49999999999999994
Info: NONBONDED TABLE R-SQUARED SPACING: 0.0625
Info: NONBONDED TABLE SIZE: 705 POINTS
TCL: Setting parameter alchLambda2 to 0.5499999999999999
Info: NONBONDED TABLE R-SQUARED SPACING: 0.0625
Info: NONBONDED TABLE SIZE: 705 POINTS
TCL: Running for 1500000 steps
ETITLE: TS BOND ANGLE DIHED IMPRP ELECT VDW BOUNDARY MISC KINETIC TOTAL TEMP POTENTIAL TOTALAVG TEMPAVG PRESSURE GPRESSURE VOLUME PRESSAVG GPRESSAVG
ENERGY: 0 7.1300 14.5110 26.0643 0.0000 -10636.2233 1383.9788 0.0000 0.0000 1791.5326 -7413.0065 303.9070 -9204.5391 -7413.0065 303.9070 -307.8937 -230.8916 30657.6770 -307.8937 -230.8916
ENERGY: 300000 5.8324 16.8195 23.8272 0.0000 -10764.1089 1447.8905 0.0000 0.0000 1859.8386 -7409.9008 315.4941 -9269.7394 -7444.1949 303.1232 279.2375 335.5628 30005.1418 -83.0400 -22.8205
ENERGY: 600000 7.1204 15.2769 26.7486 0.0000 -10686.0468 1442.3317 0.0000 0.0000 1767.8455 -7426.7239 299.8889 -9194.5694 -7446.1975 303.3161 206.9385 270.0839 30497.7447 27.1610 93.0342
ENERGY: 900000 2.1695 20.8928 23.4684 0.0000 -10727.6361 1416.2293 0.0000 0.0000 1811.7489 -7453.1273 307.3364 -9264.8761 -7449.6123 303.0166 286.6834 345.6071 29874.8425 99.9380 163.7171
ENERGY: 1200000 12.6055 17.3399 24.7808 0.0000 -10723.0839 1457.0921 0.0000 0.0000 1766.0526 -7445.2130 299.5847 -9211.2656 -7462.3117 301.2632 355.2711 339.0022 30440.9941 102.2406 154.8250
ENERGY: 1500000 7.5297 20.8839 22.8393 0.0000 -10655.6976 1432.7752 0.0000 0.0000 1754.6304 -7417.0392 297.6471 -9171.6696 -7460.4161 301.0519 243.6292 293.4287 30506.4084 27.5811 81.7599
TCL: Running FEP window  12: Lambda1 0.5499999999999999 Lambda2 0.6    [dLambda 0.050000000000000044]
TCL: Setting parameter firsttimestep to 0
TCL: Setting parameter alchLambda to 0.5499999999999999
Info: NONBONDED TABLE R-SQUARED SPACING: 0.0625
Info: NONBONDED TABLE SIZE: 705 POINTS
TCL: Setting parameter alchLambda2 to 0.6
Info: NONBONDED TABLE R-SQUARED SPACING: 0.0625
Info: NONBONDED TABLE SIZE: 705 POINTS
TCL: Running for 1500000 steps
ETITLE: TS BOND ANGLE DIHED IMPRP ELECT VDW BOUNDARY MISC KINETIC TOTAL TEMP POTENTIAL TOTALAVG TEMPAVG PRESSURE GPRESSURE VOLUME PRESSAVG GPRESSAVG
ENERGY: 0 7.5297 20.8839 22.8393 0.0000 -10656.1775 1434.2663 0.0000 0.0000 1753.7187 -7416.9396 297.4925 -9170.6583 -7416.9396 297.4925 246.7464 326.3273 30506.4084 246.7464 326.3273
ENERGY: 300000 2.8438 19.3270 23.2052 0.0000 -10685.8877 1405.5162 0.0000 0.0000 1780.7648 -7454.2308 302.0804 -9234.9955 -7435.6293 299.8165 -387.3849 -368.6214 30673.7246 -54.5520 -17.1173
ENERGY: 600000 8.3802 13.0199 23.2156 0.0000 -10786.6424 1448.7370 0.0000 0.0000 1750.4990 -7542.7908 296.9463 -9293.2898 -7439.8388 299.7747 93.0749 125.0812 29950.9829 -126.5868 -91.3593
ENERGY: 900000 4.8548 14.6540 29.9581 0.0000 -10827.6807 1501.5406 0.0000 0.0000 1804.2663 -7472.4069 306.0671 -9276.6732 -7450.5622 300.4713 583.5919 573.0195 30429.4254 -23.1411 10.1155
ENERGY: 1200000 4.3851 19.2464 23.5470 0.0000 -10838.4504 1530.3994 0.0000 0.0000 1789.6661 -7471.2065 303.5904 -9260.8726 -7457.6203 300.6250 889.1876 849.3314 30612.0612 29.2960 71.7784
ENERGY: 1500000 7.8213 16.4875 22.1956 0.0000 -10699.7707 1346.7598 0.0000 0.0000 1755.1774 -7551.3290 297.7399 -9306.5064 -7461.9516 300.6973 -1149.2629 -1041.0374 30474.5120 40.6647 83.6898
TCL: Running FEP window  13: Lambda1 0.6    Lambda2 0.65   [dLambda 0.050000000000000044]
TCL: Setting parameter firsttimestep to 0
TCL: Setting parameter alchLambda to 0.6
Info: NONBONDED TABLE R-SQUARED SPACING: 0.0625
Info: NONBONDED TABLE SIZE: 705 POINTS
TCL: Setting parameter alchLambda2 to 0.65
Info: NONBONDED TABLE R-SQUARED SPACING: 0.0625
Info: NONBONDED TABLE SIZE: 705 POINTS
TCL: Running for 1500000 steps
ETITLE: TS BOND ANGLE DIHED IMPRP ELECT VDW BOUNDARY MISC KINETIC TOTAL TEMP POTENTIAL TOTALAVG TEMPAVG PRESSURE GPRESSURE VOLUME PRESSAVG GPRESSAVG
ENERGY: 0 7.8213 16.4875 22.1956 0.0000 -10700.7563 1347.1208 0.0000 0.0000 1754.3101 -7552.8210 297.5928 -9307.1311 -7552.8210 297.5928 -1111.7815 -1022.4282 30474.5120 -1111.7815 -1022.4282
ENERGY: 300000 5.5017 11.4118 26.4902 0.0000 -10777.6536 1435.7315 0.0000 0.0000 1836.1607 -7462.3577 311.4775 -9298.5184 -7468.7707 303.1710 -265.1842 -159.0029 30563.1446 -200.8791 -104.7874
ENERGY: 600000 4.8232 17.0169 23.2124 0.0000 -10556.5167 1350.3282 0.0000 0.0000 1800.8151 -7360.3209 305.4817 -9161.1360 -7475.9440 301.6481 -344.8993 -265.4248 30669.9519 -119.7574 -33.1990
ENERGY: 900000 5.9754 22.2143 23.4453 0.0000 -10688.2065 1399.8014 0.0000 0.0000 1773.2943 -7463.4757 300.8132 -9236.7700 -7483.1182 300.9580 -383.0933 -309.1742 30958.6339 -229.6153 -146.8184
ENERGY: 1200000 4.1537 15.3692 25.2329 0.0000 -10641.0053 1404.8717 0.0000 0.0000 1707.4677 -7483.9101 289.6467 -9191.3778 -7476.6695 301.3641 10.1690 -23.5196 30501.6562 -146.1718 -83.0386
ENERGY: 1500000 3.5562 16.2290 21.6393 0.0000 -10892.9282 1568.4707 0.0000 0.0000 1754.5503 -7528.4827 297.6335 -9283.0330 -7487.4166 300.8509 981.9344 1053.8042 30029.8243 -45.2517 20.2426
TCL: Running FEP window  14: Lambda1 0.65   Lambda2 0.7000000000000001 [dLambda 0.050000000000000044]
TCL: Setting parameter firsttimestep to 0
TCL: Setting parameter alchLambda to 0.65
Info: NONBONDED TABLE R-SQUARED SPACING: 0.0625
Info: NONBONDED TABLE SIZE: 705 POINTS
TCL: Setting parameter alchLambda2 to 0.7000000000000001
Info: NONBONDED TABLE R-SQUARED SPACING: 0.0625
Info: NONBONDED TABLE SIZE: 705 POINTS
TCL: Running for 1500000 steps
ETITLE: TS BOND ANGLE DIHED IMPRP ELECT VDW BOUNDARY MISC KINETIC TOTAL TEMP POTENTIAL TOTALAVG TEMPAVG PRESSURE GPRESSURE VOLUME PRESSAVG GPRESSAVG
ENERGY: 0 3.5562 16.2290 21.6393 0.0000 -10894.0583 1568.6998 0.0000 0.0000 1753.6801 -7530.2540 297.4859 -9283.9341 -7530.2540 297.4859 1003.1082 1071.7581 30029.8243 1003.1082 1071.7581
ENERGY: 300000 3.9649 15.8406 26.2016 0.0000 -10620.1398 1395.3077 0.0000 0.0000 1757.0466 -7421.7785 298.0570 -9178.8251 -7478.0506 297.4077 -182.9127 -68.3533 30607.1609 159.4718 247.8165
ENERGY: 600000 4.5406 16.2062 27.0509 0.0000 -10617.5396 1364.6135 0.0000 0.0000 1733.1005 -7472.0279 293.9949 -9205.1284 -7453.9351 299.8924 -627.5344 -538.2225 30860.4417 -234.3829 -153.3183
ENERGY: 900000 5.4690 19.3732 24.6918 0.0000 -10693.0986 1414.0031 0.0000 0.0000 1747.7175 -7481.8441 296.4745 -9229.5616 -7466.2548 299.5664 88.0049 122.8328 30206.2201 -173.7070 -95.3251
ENERGY: 1200000 5.1018 25.9520 26.6933 0.0000 -10650.8535 1439.4782 0.0000 0.0000 1784.0438 -7369.5843 302.6367 -9153.6281 -7455.1665 299.4119 342.9146 409.2431 30148.2138 -141.6292 -66.4457
ENERGY: 1500000 6.3449 19.4119 26.0617 0.0000 -10780.1133 1527.9840 0.0000 0.0000 1777.6170 -7422.6939 301.5465 -9200.3108 -7458.5748 299.5154 1081.7956 1074.9203 30459.6088 -108.9303 -37.6927
TCL: Running FEP window  15: Lambda1 0.7000000000000001 Lambda2 0.7500000000000001 [dLambda 0.050000000000000044]
TCL: Setting parameter firsttimestep to 0
TCL: Setting parameter alchLambda to 0.7000000000000001
Info: NONBONDED TABLE R-SQUARED SPACING: 0.0625
Info: NONBONDED TABLE SIZE: 705 POINTS
TCL: Setting parameter alchLambda2 to 0.7500000000000001
Info: NONBONDED TABLE R-SQUARED SPACING: 0.0625
Info: NONBONDED TABLE SIZE: 705 POINTS
TCL: Running for 1500000 steps
ETITLE: TS BOND ANGLE DIHED IMPRP ELECT VDW BOUNDARY MISC KINETIC TOTAL TEMP POTENTIAL TOTALAVG TEMPAVG PRESSURE GPRESSURE VOLUME PRESSAVG GPRESSAVG
ENERGY: 0 6.3449 19.4119 26.0617 0.0000 -10782.4827 1528.1341 0.0000 0.0000 1776.7706 -7425.7595 301.4029 -9202.5301 -7425.7595 301.4029 1016.5305 1090.6809 30459.6088 1016.5305 1090.6809
ENERGY: 300000 5.2771 12.5231 25.7449 0.0000 -10678.5068 1412.3505 0.0000 0.0000 1791.4833 -7431.1279 303.8987 -9222.6112 -7443.8647 304.7008 -71.0480 -72.3373 30305.8454 276.2661 337.6749
ENERGY: 600000 6.5990 15.9263 24.8415 0.0000 -10746.3223 1431.4916 0.0000 0.0000 1777.5239 -7489.9401 301.5307 -9267.4640 -7461.6883 301.4869 232.4033 284.6112 30168.6911 70.4248 118.2892
ENERGY: 900000 6.4039 12.9078 25.5728 0.0000 -10662.3425 1425.5580 0.0000 0.0000 1796.6997 -7395.2004 304.7836 -9191.9001 -7451.6971 301.7082 182.7984 243.8209 30324.6048 150.8564 200.7290
ENERGY: 1200000 8.4397 18.4546 23.2025 0.0000 -10562.5873 1322.8830 0.0000 0.0000 1820.0125 -7369.5951 308.7382 -9189.6075 -7451.7323 302.5490 -825.9942 -777.3782 30963.7769 83.7387 140.5700
ENERGY: 1500000 5.7882 16.9987 22.8988 0.0000 -10692.4036 1390.6921 0.0000 0.0000 1736.1799 -7519.8459 294.5173 -9256.0259 -7453.7528 301.0147 -291.6399 -264.1354 30507.8043 79.6632 139.4259
TCL: Running FEP window  16: Lambda1 0.7500000000000001 Lambda2 0.8000000000000002 [dLambda 0.050000000000000044]
TCL: Setting parameter firsttimestep to 0
TCL: Setting parameter alchLambda to 0.7500000000000001
Info: NONBONDED TABLE R-SQUARED SPACING: 0.0625
Info: NONBONDED TABLE SIZE: 705 POINTS
TCL: Setting parameter alchLambda2 to 0.8000000000000002
Info: NONBONDED TABLE R-SQUARED SPACING: 0.0625
Info: NONBONDED TABLE SIZE: 705 POINTS
TCL: Running for 1500000 steps
ETITLE: TS BOND ANGLE DIHED IMPRP ELECT VDW BOUNDARY MISC KINETIC TOTAL TEMP POTENTIAL TOTALAVG TEMPAVG PRESSURE GPRESSURE VOLUME PRESSAVG GPRESSAVG
ENERGY: 0 5.7882 16.9987 22.8988 0.0000 -10694.3035 1391.7814 0.0000 0.0000 1735.3186 -7521.5178 294.3712 -9256.8364 -7521.5178 294.3712 -314.0143 -235.2685 30507.8043 -314.0143 -235.2685
ENERGY: 300000 9.4958 18.4076 22.5920 0.0000 -10826.9272 1412.4680 0.0000 0.0000 1828.3797 -7535.5841 310.1576 -9363.9638 -7489.8761 301.0460 -165.5105 -145.8587 29762.3241 -116.2571 -53.4846
ENERGY: 600000 3.8998 13.1421 25.0600 0.0000 -10702.5109 1389.5693 0.0000 0.0000 1769.8615 -7500.9781 300.2309 -9270.8397 -7494.9406 301.2355 -313.2066 -266.3643 30287.5494 38.2741 93.3852
ENERGY: 900000 4.4155 14.8129 23.9318 0.0000 -10694.0155 1466.5794 0.0000 0.0000 1806.1267 -7378.1492 306.3827 -9184.2759 -7485.9516 301.7023 398.1815 474.0372 30900.8432 176.9649 238.9212
ENERGY: 1200000 7.0474 12.1496 25.6989 0.0000 -10785.1959 1431.5621 0.0000 0.0000 1755.8846 -7552.8533 297.8599 -9308.7379 -7494.2005 300.9400 60.3878 136.2338 30202.7677 53.4700 116.3641
ENERGY: 1500000 7.2590 16.7256 25.6302 0.0000 -10718.1378 1428.3352 0.0000 0.0000 1807.3475 -7432.8403 306.5898 -9240.1878 -7490.9385 301.1647 187.7672 339.4683 30343.0392 27.1497 91.9250
TCL: Running FEP window  17: Lambda1 0.8000000000000002 Lambda2 0.8500000000000002 [dLambda 0.050000000000000044]
TCL: Setting parameter firsttimestep to 0
TCL: Setting parameter alchLambda to 0.8000000000000002
Info: NONBONDED TABLE R-SQUARED SPACING: 0.0625
Info: NONBONDED TABLE SIZE: 705 POINTS
TCL: Setting parameter alchLambda2 to 0.8500000000000002
Info: NONBONDED TABLE R-SQUARED SPACING: 0.0625
Info: NONBONDED TABLE SIZE: 705 POINTS
TCL: Running for 1500000 steps
ETITLE: TS BOND ANGLE DIHED IMPRP ELECT VDW BOUNDARY MISC KINETIC TOTAL TEMP POTENTIAL TOTALAVG TEMPAVG PRESSURE GPRESSURE VOLUME PRESSAVG GPRESSAVG
ENERGY: 0 7.2590 16.7256 25.6302 0.0000 -10720.2089 1430.2524 0.0000 0.0000 1806.4122 -7433.9295 306.4311 -9240.3418 -7433.9295 306.4311 294.0520 378.1069 30343.0392 294.0520 378.1069
ENERGY: 300000 5.9124 19.5040 25.6872 0.0000 -10693.4117 1362.5438 0.0000 0.0000 1757.2070 -7522.5573 298.0842 -9279.7643 -7465.3453 301.6812 -450.9201 -422.7241 30486.1776 -180.8553 -136.7059
ENERGY: 600000 6.1228 22.2659 24.9094 0.0000 -10731.6609 1418.5356 0.0000 0.0000 1721.9127 -7537.9145 292.0971 -9259.8272 -7488.0222 300.3165 151.3838 203.4734 30210.8436 17.9160 54.7157
ENERGY: 900000 5.3381 16.3578 25.6025 0.0000 -10612.3132 1306.2525 0.0000 0.0000 1809.2455 -7449.5167 306.9118 -9258.7622 -7486.7185 301.0371 -840.7198 -791.2048 30128.2823 -12.9790 35.2074
ENERGY: 1200000 6.8290 15.9563 21.8095 0.0000 -10716.3940 1407.1378 0.0000 0.0000 1776.7496 -7487.9118 301.3993 -9264.6614 -7488.7749 300.8419 -167.2392 -80.5683 30656.2551 32.5494 85.0360
ENERGY: 1500000 6.1919 19.9486 22.2617 0.0000 -10643.9851 1348.0320 0.0000 0.0000 1774.6684 -7472.8825 301.0463 -9247.5509 -7480.2641 301.0045 -568.2809 -541.4917 30607.1832 -8.7191 38.4472
TCL: Running FEP window  18: Lambda1 0.8500000000000002 Lambda2 0.9000000000000002 [dLambda 0.050000000000000044]
TCL: Setting parameter firsttimestep to 0
TCL: Setting parameter alchLambda to 0.8500000000000002
Info: NONBONDED TABLE R-SQUARED SPACING: 0.0625
Info: NONBONDED TABLE SIZE: 705 POINTS
TCL: Setting parameter alchLambda2 to 0.9000000000000002
Info: NONBONDED TABLE R-SQUARED SPACING: 0.0625
Info: NONBONDED TABLE SIZE: 705 POINTS
TCL: Running for 1500000 steps
ETITLE: TS BOND ANGLE DIHED IMPRP ELECT VDW BOUNDARY MISC KINETIC TOTAL TEMP POTENTIAL TOTALAVG TEMPAVG PRESSURE GPRESSURE VOLUME PRESSAVG GPRESSAVG
ENERGY: 0 6.1919 19.9486 22.2617 0.0000 -10646.0637 1347.9498 0.0000 0.0000 1773.8010 -7475.9107 300.8991 -9249.7116 -7475.9107 300.8991 -596.6733 -525.2140 30607.1832 -596.6733 -525.2140
ENERGY: 300000 3.5973 15.1171 22.6717 0.0000 -10723.3009 1415.0501 0.0000 0.0000 1795.5706 -7471.2941 304.5920 -9266.8647 -7484.6400 301.7613 -396.8280 -257.0037 31078.4604 -405.1520 -303.4285
ENERGY: 600000 5.6007 21.0036 23.6960 0.0000 -10655.7156 1465.6401 0.0000 0.0000 1794.0800 -7345.6951 304.3392 -9139.7751 -7448.6490 302.7943 567.6128 703.2887 30773.0270 -64.9615 23.0579
ENERGY: 900000 2.1503 12.7196 25.7327 0.0000 -10712.5363 1470.2597 0.0000 0.0000 1707.9191 -7493.7549 289.7232 -9201.6740 -7455.5630 300.5106 710.6388 710.3987 30344.2996 -33.9723 37.7376
ENERGY: 1200000 7.1843 12.6452 25.3516 0.0000 -10546.1828 1337.3577 0.0000 0.0000 1736.6521 -7426.9918 294.5974 -9163.6439 -7450.8609 301.4960 -326.1786 -340.0328 31024.6996 -68.3091 -5.5341
ENERGY: 1500000 6.2684 22.1569 20.4308 0.0000 -10663.6028 1352.2276 0.0000 0.0000 1738.3605 -7524.1587 294.8872 -9262.5191 -7463.5277 300.1019 -789.5165 -695.3362 30640.6665 -109.0291 -52.1572
TCL: Running FEP window  19: Lambda1 0.9000000000000002 Lambda2 0.9500000000000003 [dLambda 0.050000000000000044]
TCL: Setting parameter firsttimestep to 0
TCL: Setting parameter alchLambda to 0.9000000000000002
Info: NONBONDED TABLE R-SQUARED SPACING: 0.0625
Info: NONBONDED TABLE SIZE: 705 POINTS
TCL: Setting parameter alchLambda2 to 0.9500000000000003
Info: NONBONDED TABLE R-SQUARED SPACING: 0.0625
Info: NONBONDED TABLE SIZE: 705 POINTS
TCL: Running for 1500000 steps
ETITLE: TS BOND ANGLE DIHED IMPRP ELECT VDW BOUNDARY MISC KINETIC TOTAL TEMP POTENTIAL TOTALAVG TEMPAVG PRESSURE GPRESSURE VOLUME PRESSAVG GPRESSAVG
ENERGY: 0 6.2684 22.1569 20.4308 0.0000 -10667.1347 1353.7935 0.0000 0.0000 1737.4720 -7527.0131 294.7364 -9264.4850 -7527.0131 294.7364 -758.1198 -664.2901 30640.6665 -758.1198 -664.2901
ENERGY: 300000 5.5341 16.0157 25.5249 0.0000 -10726.1644 1383.5940 0.0000 0.0000 1749.9507 -7545.5450 296.8533 -9295.4957 -7512.6461 297.9640 -751.4891 -638.4621 30812.6308 -415.3096 -327.3408
ENERGY: 600000 3.6111 21.3356 23.7350 0.0000 -10669.3770 1368.1779 0.0000 0.0000 1745.4463 -7507.0712 296.0892 -9252.5175 -7520.5637 297.7799 -346.5843 -275.7730 30406.1197 -185.9421 -107.2502
ENERGY: 900000 6.5930 25.5431 25.9017 0.0000 -10599.5535 1351.2288 0.0000 0.0000 1818.7856 -7371.5013 308.5301 -9190.2869 -7493.4827 300.1456 -680.3808 -586.4649 31225.8367 -209.5258 -136.7892
ENERGY: 1200000 4.2845 16.7045 23.4155 0.0000 -10713.7419 1443.0392 0.0000 0.0000 1742.6084 -7483.6898 295.6078 -9226.2982 -7488.7354 299.5383 316.1957 338.4141 30626.4126 -45.9489 17.8654
ENERGY: 1500000 5.6010 18.0447 23.5459 0.0000 -10658.7503 1370.3428 0.0000 0.0000 1794.8162 -7446.3997 304.4641 -9241.2159 -7489.3480 299.3538 -671.3796 -595.6018 30934.9217 -94.8105 -29.6663
TCL: Running FEP window  20: Lambda1 0.9500000000000003 Lambda2 1.0    [dLambda 0.04999999999999971]
TCL: Setting parameter firsttimestep to 0
TCL: Setting parameter alchLambda to 0.9500000000000003
Info: NONBONDED TABLE R-SQUARED SPACING: 0.0625
Info: NONBONDED TABLE SIZE: 705 POINTS
TCL: Setting parameter alchLambda2 to 1.0
Info: NONBONDED TABLE R-SQUARED SPACING: 0.0625
Info: NONBONDED TABLE SIZE: 705 POINTS
TCL: Running for 1500000 steps
ETITLE: TS BOND ANGLE DIHED IMPRP ELECT VDW BOUNDARY MISC KINETIC TOTAL TEMP POTENTIAL TOTALAVG TEMPAVG PRESSURE GPRESSURE VOLUME PRESSAVG GPRESSAVG
ENERGY: 0 5.6010 18.0447 23.5459 0.0000 -10661.6020 1371.3082 0.0000 0.0000 1793.9164 -7449.1858 304.3114 -9243.1022 -7449.1858 304.3114 -652.5029 -570.4385 30934.9217 -652.5029 -570.4385
ENERGY: 300000 9.2529 18.6043 25.3998 0.0000 -10672.9407 1393.1410 0.0000 0.0000 1828.6221 -7397.9207 310.1987 -9226.5428 -7452.5871 303.8627 -142.0235 -125.7207 30874.8286 -543.2182 -491.6216
ENERGY: 600000 7.8362 13.1673 24.6651 0.0000 -10555.4869 1353.1274 0.0000 0.0000 1787.6589 -7369.0320 303.2499 -9156.6909 -7454.0379 304.2046 -657.5075 -560.2070 30872.7267 -564.0597 -498.2279
ENERGY: 900000 5.5350 20.3266 26.3312 0.0000 -10800.9516 1466.2817 0.0000 0.0000 1732.3492 -7550.1280 293.8674 -9282.4771 -7471.8036 301.9071 371.8732 416.5671 30486.0835 -380.9796 -308.9399
ENERGY: 1200000 9.9840 16.1285 24.9330 0.0000 -10763.5886 1403.4391 0.0000 0.0000 1762.0359 -7547.0681 298.9034 -9309.1040 -7476.7527 300.2518 -480.3118 -389.2742 30265.5763 -331.7434 -252.9210
ENERGY: 1500000 6.9675 15.8272 22.4839 0.0000 -10700.0315 1452.1145 0.0000 0.0000 1814.0865 -7388.5520 307.7330 -9202.6385 -7460.4070 301.2802 744.2862 776.4274 30376.8687 -217.4998 -139.7383
TCL: Exiting due to exit command.
