Info: SIMULATION PARAMETERS:
Info: TIMESTEP               2
Info: NUMBER OF STEPS        0
Info: STEPS PER CYCLE        10
Info: PERIODIC CELL BASIS 1  28.1154 0 0
Info: PERIODIC CELL BASIS 2  0 33.2276 0
Info: PERIODIC CELL BASIS 3  0 0 32.1612
Info: PERIODIC CELL CENTER   0 0 0
Info: WRAPPING WATERS AROUND PERIODIC BOUNDARIES ON OUTPUT.
Info: WRAPPING ALL CLUSTERS AROUND PERIODIC BOUNDARIES ON OUTPUT.
Info: FIRST LDB TIMESTEP     50
Info: LAST LDB TIMESTEP     -1
Info: HOM BACKGROUND SCALING 1
Info: PME BACKGROUND SCALING 1
Info: MIN ATOMS PER PATCH    40
Info: EMPTY PATCH LOAD       40 ATOMS
Info: VELOCITY FILE          mobley_1502181_equil.vel
Info: CENTER OF MASS MOVING INITIALLY? NO
Info: DIELECTRIC             1
Info: EXCLUDE                SCALED ONE-FOUR
Info: 1-4 ELECTROSTATICS SCALED BY 0.833333
Info: MODIFIED 1-4 VDW PARAMETERS WILL BE USED
Info: DCD FILENAME           mobley_1502181_prod.dcd
Info: DCD FREQUENCY          100000
Info: DCD FIRST STEP         100000
Info: DCD FILE WILL CONTAIN UNIT CELL DATA
Info: XST FILENAME           mobley_1502181_prod.xst
Info: XST FREQUENCY          100000
Info: NO VELOCITY DCD OUTPUT
Info: NO FORCE DCD OUTPUT
Info: OUTPUT FILENAME        mobley_1502181_prod
Info: BINARY OUTPUT FILES WILL BE USED
Info: RESTART FILENAME       mobley_1502181_prod.restart
Info: RESTART FREQUENCY      100000
Info: BINARY RESTART FILES WILL BE USED
Info: CUTOFF                 9
Info: PAIRLIST DISTANCE      11
Info: PAIRLIST SHRINK RATE   0.01
Info: PAIRLIST GROW RATE     0.01
Info: PAIRLIST TRIGGER       0.3
Info: PAIRLISTS PER CYCLE    2
Info: PAIRLISTS ENABLED
Info: MARGIN                 2
Info: HYDROGEN GROUP CUTOFF  2.5
Info: PATCH DIMENSION        15.5
Info: ENERGY OUTPUT STEPS    100000
Info: ENERGY EVALUATION STEPS    100000
Info: OUTPUT ENERGY PRECISION 4
Info: CROSSTERM ENERGY INCLUDED IN DIHEDRAL
Info: TIMING OUTPUT STEPS    1000000
Info: PRESSURE OUTPUT STEPS  100000
Info: ALCHEMICAL FEP ON
Info: FEP CURRENT LAMBDA VALUE     1
Info: FEP COMPARISON LAMBDA VALUE  0.95
Info: FEP INTRA-ALCHEMICAL NON-BONDED INTERACTIONS WILL BE RETAINED
Info: FEP INTRA-ALCHEMICAL BONDED INTERACTIONS WILL BE RETAINED
Info: FEP VDW SHIFTING COEFFICIENT 5
Info: FEP ELEC. ACTIVE FOR ANNIHILATED PARTICLES BETWEEN LAMBDA = 0 AND LAMBDA = 0.5
Info: FEP ELEC. ACTIVE FOR EXNIHILATED PARTICLES BETWEEN LAMBDA = 0.5 AND LAMBDA = 1
Info: FEP VDW ACTIVE FOR ANNIHILATED PARTICLES BETWEEN LAMBDA = 0 AND LAMBDA = 1
Info: FEP VDW ACTIVE FOR EXNIHILATED PARTICLES BETWEEN LAMBDA = 0 AND LAMBDA = 1
Info: FEP BOND ACTIVE FOR ANNIHILATED PARTICLES BETWEEN LAMBDA = 1 AND LAMBDA = 1
Info: FEP BOND ACTIVE FOR EXNIHILATED PARTICLES BETWEEN LAMBDA = 0 AND LAMBDA = 0
Info: LANGEVIN DYNAMICS ACTIVE
Info: LANGEVIN TEMPERATURE   300
Info: LANGEVIN USING BBK INTEGRATOR
Info: LANGEVIN DAMPING COEFFICIENT IS 1 INVERSE PS
Info: LANGEVIN DYNAMICS APPLIED TO HYDROGENS
Info: LANGEVIN PISTON PRESSURE CONTROL ACTIVE
Info:        TARGET PRESSURE IS 1.01325 BAR
Info:     OSCILLATION PERIOD IS 50 FS
Info:             DECAY TIME IS 25 FS
Info:     PISTON TEMPERATURE IS 300 K
Info:       PRESSURE CONTROL IS GROUP-BASED
Info:    INITIAL STRAIN RATE IS 0.000597077 0.000597077 0.000597077
Info:       CELL FLUCTUATION IS ISOTROPIC
Info: PARTICLE MESH EWALD (PME) ACTIVE
Info: PME TOLERANCE               1e-06
Info: PME EWALD COEFFICIENT       0.348832
Info: PME INTERPOLATION ORDER     4
Info: PME GRID DIMENSIONS         32 36 36
Info: PME MAXIMUM GRID SPACING    1
Info: PME CALCULATION WILL BE PERFORMED ON GPU
Info: FULL ELECTROSTATIC EVALUATION FREQUENCY      2
Info: USING VERLET I (r-RESPA) MTS SCHEME.
Info: C1 SPLITTING OF LONG RANGE ELECTROSTATICS
Info: PLACING ATOMS IN PATCHES BY HYDROGEN GROUPS
Info: RIGID BONDS TO HYDROGEN : ALL
Info:         ERROR TOLERANCE : 1e-08
Info:          MAX ITERATIONS : 100
Info: RIGID WATER USING SETTLE ALGORITHM
Info: RANDOM NUMBER SEED     1744072464
Info: USE HYDROGEN BONDS?    NO
Info: Using AMBER format force field!
Info: AMBER PARM FILE        mobley_1502181.prmtop
Info: COORDINATE PDB         mobley_1502181.pdb
Info: Exclusions will be read from PARM file!
Info: SCNB (VDW SCALING)     2
Info: USING ARITHMETIC MEAN TO COMBINE L-J SIGMA PARAMETERS
Info: BINARY COORDINATES     mobley_1502181_equil.coor
Info: SUMMARY OF PARAMETERS:
Info: 6 BONDS
Info: 7 ANGLES
Info:   7 HARMONIC
Info:   0 COSINE-BASED
Info: 11 DIHEDRAL
Info: 0 IMPROPER
Info: 0 CROSSTERM
Info: 0 VDW
Info: 21 VDW_PAIRS
Info: 0 NBTHOLE_PAIRS
Info: To read alchdata from file: mobley_1502181.pdb
Info: To read alchflag data from column: 5
Info: STRUCTURE SUMMARY:
Info: 2905 ATOMS
Info: 2904 BONDS
Info: 51 ANGLES
Info: 85 DIHEDRALS
Info: 0 IMPROPERS
Info: 0 CROSSTERMS
Info: 3021 EXCLUSIONS
Info: 2895 RIGID BONDS
Info: ALCH: 0 ATOMS TO DISAPPEAR IN FINAL STATE
Info: ALCH: 28 ATOMS TO APPEAR IN FINAL STATE
Info: 5820 DEGREES OF FREEDOM
Info: 969 HYDROGEN GROUPS
Info: 4 ATOMS IN LARGEST HYDROGEN GROUP
Info: 969 MIGRATION GROUPS
Info: 4 ATOMS IN LARGEST MIGRATION GROUP
Info: TOTAL MASS = 17419.6 amu
Info: TOTAL CHARGE = 0.00010002 e
Info: MASS DENSITY = 0.962767 g/cm^3
Info: ATOM DENSITY = 0.0966875 atoms/A^3
Info: ADDED 0 IMPLICIT EXCLUSIONS
Info: NONBONDED TABLE R-SQUARED SPACING: 0.0625
Info: NONBONDED TABLE SIZE: 705 POINTS
Info: REMOVING COM VELOCITY -0.148434 0.0939713 0.068622
Info: Use 3D box decompostion in PME FFT.
Info: Updated CUDA force table with 4096 elements.
Info: Updated CUDA LJ table with 6 x 6 elements.
Info: Found 31 unique exclusion lists needing 116 bytes
TCL: Running for 1500000 steps
ETITLE: TS BOND ANGLE DIHED IMPRP ELECT VDW BOUNDARY MISC KINETIC TOTAL TEMP POTENTIAL TOTALAVG TEMPAVG PRESSURE GPRESSURE VOLUME PRESSAVG GPRESSAVG
ENERGY: 0 3.8358 12.8112 6.6784 0.0000 -10528.3239 1368.0438 0.0000 0.0000 1744.1331 -7392.8216 301.6109 -9136.9547 -7392.8216 301.6109 -600.9959 -521.8412 30045.2533 -600.9959 -521.8412
ENERGY: 300000 4.9664 10.2871 6.7786 0.0000 -10390.1336 1391.7662 0.0000 0.0000 1728.8895 -7247.4457 298.9748 -8976.3352 -7288.8807 305.0044 166.4784 260.3709 29757.6357 -433.0174 -378.1983
ENERGY: 600000 1.7388 11.6547 10.7025 0.0000 -10381.4753 1323.2791 0.0000 0.0000 1730.6303 -7303.4699 299.2759 -9034.1002 -7291.9802 304.0712 -660.7851 -539.7462 30093.9156 -497.9858 -435.0470
ENERGY: 900000 3.4701 14.9308 7.9556 0.0000 -10491.3923 1414.5934 0.0000 0.0000 1725.0327 -7325.4097 298.3079 -9050.4424 -7285.0556 304.1560 -46.6257 24.6218 30295.9118 -372.6868 -309.3052
ENERGY: 1200000 1.6259 9.5167 6.9110 0.0000 -10452.5565 1412.5949 0.0000 0.0000 1753.5409 -7268.3671 303.2378 -9021.9080 -7291.8875 302.9469 345.3338 366.1637 29843.4522 -244.9941 -180.3072
ENERGY: 1500000 2.3233 13.2406 6.7749 0.0000 -10533.6922 1407.6559 0.0000 0.0000 1723.3814 -7380.3161 298.0223 -9103.6974 -7296.3100 302.7723 -13.9126 36.9632 29658.7264 -243.7495 -183.6333
TCL: Running FEP window   2: Lambda1 0.95   Lambda2 0.8999999999999999 [dLambda -0.050000000000000044]
TCL: Setting parameter firsttimestep to 0
TCL: Setting parameter alchLambda to 0.95
Info: NONBONDED TABLE R-SQUARED SPACING: 0.0625
Info: NONBONDED TABLE SIZE: 705 POINTS
TCL: Setting parameter alchLambda2 to 0.8999999999999999
Info: NONBONDED TABLE R-SQUARED SPACING: 0.0625
Info: NONBONDED TABLE SIZE: 705 POINTS
TCL: Running for 1500000 steps
ETITLE: TS BOND ANGLE DIHED IMPRP ELECT VDW BOUNDARY MISC KINETIC TOTAL TEMP POTENTIAL TOTALAVG TEMPAVG PRESSURE GPRESSURE VOLUME PRESSAVG GPRESSAVG
ENERGY: 0 2.3233 13.2406 6.7749 0.0000 -10532.7007 1407.3705 0.0000 0.0000 1722.5425 -7380.4489 297.8773 -9102.9914 -7380.4489 297.8773 -72.6948 14.9933 29658.7264 -72.6948 14.9933
ENERGY: 300000 7.2207 13.4049 11.1810 0.0000 -10465.9206 1402.3441 0.0000 0.0000 1740.9547 -7290.8151 301.0613 -9031.7699 -7337.4658 298.1085 180.7156 241.9686 29865.9340 -113.0458 -44.2972
ENERGY: 600000 2.2901 13.3971 10.5905 0.0000 -10320.2278 1260.7811 0.0000 0.0000 1753.9805 -7279.1884 303.3138 -9033.1689 -7323.4122 300.9612 -1117.9160 -1026.7934 29705.0385 -110.1284 -32.3506
ENERGY: 900000 2.9494 15.3862 7.9289 0.0000 -10455.0236 1384.6484 0.0000 0.0000 1762.7539 -7281.3568 304.8310 -9044.1106 -7322.5500 300.5426 -101.2565 -60.0841 29841.5046 -31.4481 35.8419
ENERGY: 1200000 5.2512 17.1498 7.6298 0.0000 -10482.1487 1436.3870 0.0000 0.0000 1724.6627 -7291.0683 298.2439 -9015.7310 -7325.3212 300.2523 375.5181 468.7002 29675.3328 -32.8211 40.0920
ENERGY: 1500000 2.2567 13.8545 7.3907 0.0000 -10500.0161 1344.8592 0.0000 0.0000 1711.2880 -7420.3670 295.9310 -9131.6550 -7324.7050 300.8182 -670.0757 -601.4004 29902.9144 -117.2456 -37.9001
TCL: Running FEP window   3: Lambda1 0.8999999999999999 Lambda2 0.8499999999999999 [dLambda -0.050000000000000044]
TCL: Setting parameter firsttimestep to 0
TCL: Setting parameter alchLambda to 0.8999999999999999
Info: NONBONDED TABLE R-SQUARED SPACING: 0.0625
Info: NONBONDED TABLE SIZE: 705 POINTS
TCL: Setting parameter alchLambda2 to 0.8499999999999999
Info: NONBONDED TABLE R-SQUARED SPACING: 0.0625
Info: NONBONDED TABLE SIZE: 705 POINTS
TCL: Running for 1500000 steps
ETITLE: TS BOND ANGLE DIHED IMPRP ELECT VDW BOUNDARY MISC KINETIC TOTAL TEMP POTENTIAL TOTALAVG TEMPAVG PRESSURE GPRESSURE VOLUME PRESSAVG GPRESSAVG
ENERGY: 0 2.2567 13.8545 7.3907 0.0000 -10498.8768 1345.0538 0.0000 0.0000 1710.4345 -7419.8866 295.7834 -9130.3211 -7419.8866 295.7834 -689.7160 -612.6392 29902.9144 -689.7160 -612.6392
ENERGY: 300000 5.6743 10.0165 7.2352 0.0000 -10602.7692 1496.2790 0.0000 0.0000 1750.0272 -7333.5370 302.6302 -9083.5642 -7309.6864 300.9379 564.6612 621.4601 29667.5207 -71.2466 -6.5597
ENERGY: 600000 0.5165 10.2754 8.6831 0.0000 -10464.9733 1429.1781 0.0000 0.0000 1670.2614 -7346.0587 288.8363 -9016.3201 -7346.9830 297.7305 351.2438 356.7283 29896.8836 -5.2121 55.7931
ENERGY: 900000 2.9145 13.8831 10.5812 0.0000 -10430.5181 1345.7011 0.0000 0.0000 1791.4260 -7266.0122 309.7892 -9057.4382 -7337.3288 299.2934 -341.7773 -264.7591 29782.4059 -41.3226 26.9264
ENERGY: 1200000 3.0798 11.9069 7.5885 0.0000 -10422.6738 1394.3589 0.0000 0.0000 1750.3216 -7255.4181 302.6811 -9005.7397 -7327.5914 299.8678 134.5584 196.0184 29835.0771 34.6628 98.6828
ENERGY: 1500000 5.4512 17.9259 7.0226 0.0000 -10407.5217 1310.1942 0.0000 0.0000 1706.5898 -7360.3378 295.1186 -9066.9276 -7331.5470 299.6351 -734.5154 -730.1096 29697.3086 26.2238 81.7818
TCL: Running FEP window   4: Lambda1 0.8499999999999999 Lambda2 0.7999999999999998 [dLambda -0.050000000000000044]
TCL: Setting parameter firsttimestep to 0
TCL: Setting parameter alchLambda to 0.8499999999999999
Info: NONBONDED TABLE R-SQUARED SPACING: 0.0625
Info: NONBONDED TABLE SIZE: 705 POINTS
TCL: Setting parameter alchLambda2 to 0.7999999999999998
Info: NONBONDED TABLE R-SQUARED SPACING: 0.0625
Info: NONBONDED TABLE SIZE: 705 POINTS
TCL: Running for 1500000 steps
ETITLE: TS BOND ANGLE DIHED IMPRP ELECT VDW BOUNDARY MISC KINETIC TOTAL TEMP POTENTIAL TOTALAVG TEMPAVG PRESSURE GPRESSURE VOLUME PRESSAVG GPRESSAVG
ENERGY: 0 5.4512 17.9259 7.0226 0.0000 -10405.8564 1310.1557 0.0000 0.0000 1705.7296 -7359.5712 294.9698 -9065.3009 -7359.5712 294.9698 -817.6642 -741.5135 29697.3086 -817.6642 -741.5135
ENERGY: 300000 4.3875 15.7932 8.1922 0.0000 -10536.5633 1417.3596 0.0000 0.0000 1769.7076 -7321.1231 306.0335 -9090.8307 -7311.2404 301.5438 -259.5132 -196.7477 30323.8750 -112.4081 -73.8003
ENERGY: 600000 3.8188 14.4431 7.1757 0.0000 -10492.4646 1464.0698 0.0000 0.0000 1722.9288 -7280.0285 297.9441 -9002.9572 -7306.2661 299.9156 647.2649 741.2595 29809.6127 167.3471 217.6971
ENERGY: 900000 1.4106 14.1561 8.2208 0.0000 -10549.4693 1420.7866 0.0000 0.0000 1697.9321 -7406.9631 293.6214 -9104.8952 -7314.2057 299.9829 69.9371 106.4604 29918.8399 165.3285 209.6630
ENERGY: 1200000 2.7690 14.0965 6.9229 0.0000 -10486.0241 1473.6351 0.0000 0.0000 1743.0945 -7245.5061 301.4313 -8988.6006 -7302.2322 300.1099 792.8923 842.0349 29755.4926 249.9927 291.7569
ENERGY: 1500000 3.0704 12.0976 8.2429 0.0000 -10607.2410 1438.1365 0.0000 0.0000 1721.4477 -7424.2461 297.6879 -9145.6938 -7318.1531 299.7946 229.6318 238.2869 29509.8989 162.2033 204.3532
TCL: Running FEP window   5: Lambda1 0.7999999999999998 Lambda2 0.7499999999999998 [dLambda -0.050000000000000044]
TCL: Setting parameter firsttimestep to 0
TCL: Setting parameter alchLambda to 0.7999999999999998
Info: NONBONDED TABLE R-SQUARED SPACING: 0.0625
Info: NONBONDED TABLE SIZE: 705 POINTS
TCL: Setting parameter alchLambda2 to 0.7499999999999998
Info: NONBONDED TABLE R-SQUARED SPACING: 0.0625
Info: NONBONDED TABLE SIZE: 705 POINTS
TCL: Running for 1500000 steps
ETITLE: TS BOND ANGLE DIHED IMPRP ELECT VDW BOUNDARY MISC KINETIC TOTAL TEMP POTENTIAL TOTALAVG TEMPAVG PRESSURE GPRESSURE VOLUME PRESSAVG GPRESSAVG
ENERGY: 0 3.0704 12.0976 8.2429 0.0000 -10606.1596 1437.2424 0.0000 0.0000 1720.5993 -7424.9071 297.5412 -9145.5064 -7424.9071 297.5412 134.4927 206.6077 29509.8989 134.4927 206.6077
ENERGY: 300000 2.2209 16.6647 8.8012 0.0000 -10556.6332 1473.9110 0.0000 0.0000 1705.1072 -7349.9281 294.8622 -9055.0354 -7329.6451 298.6336 741.2482 822.2743 29626.3144 380.7002 424.6604
ENERGY: 600000 3.6317 14.9627 8.4834 0.0000 -10408.5250 1340.3626 0.0000 0.0000 1786.6961 -7254.3885 308.9713 -9041.0846 -7311.4740 301.4230 -805.9494 -736.8504 30372.5282 -41.5576 18.3713
ENERGY: 900000 5.0724 12.8874 7.1301 0.0000 -10577.4795 1440.1412 0.0000 0.0000 1701.4267 -7410.8217 294.2257 -9112.2485 -7318.7894 300.2173 -74.8978 31.4053 29980.0030 56.9263 118.6247
ENERGY: 1200000 2.9673 12.4759 7.1681 0.0000 -10524.2600 1465.5687 0.0000 0.0000 1684.6416 -7351.4384 291.3231 -9036.0800 -7324.8704 299.5556 831.3708 867.4010 29435.0357 98.2104 154.4635
ENERGY: 1500000 1.2887 13.8655 7.1852 0.0000 -10472.2230 1378.1607 0.0000 0.0000 1728.8204 -7342.9024 298.9629 -9071.7229 -7316.1075 300.5512 -173.7906 -160.2190 29765.0417 140.9502 198.8294
TCL: Running FEP window   6: Lambda1 0.7499999999999998 Lambda2 0.6999999999999997 [dLambda -0.050000000000000044]
TCL: Setting parameter firsttimestep to 0
TCL: Setting parameter alchLambda to 0.7499999999999998
Info: NONBONDED TABLE R-SQUARED SPACING: 0.0625
Info: NONBONDED TABLE SIZE: 705 POINTS
TCL: Setting parameter alchLambda2 to 0.6999999999999997
Info: NONBONDED TABLE R-SQUARED SPACING: 0.0625
Info: NONBONDED TABLE SIZE: 705 POINTS
TCL: Running for 1500000 steps
ETITLE: TS BOND ANGLE DIHED IMPRP ELECT VDW BOUNDARY MISC KINETIC TOTAL TEMP POTENTIAL TOTALAVG TEMPAVG PRESSURE GPRESSURE VOLUME PRESSAVG GPRESSAVG
ENERGY: 0 1.2887 13.8655 7.1852 0.0000 -10470.6883 1377.4825 0.0000 0.0000 1727.9755 -7342.8909 298.8168 -9070.8664 -7342.8909 298.8168 -274.5820 -180.2054 29765.0417 -274.5820 -180.2054
ENERGY: 300000 1.4120 17.0021 7.8763 0.0000 -10439.8307 1352.6388 0.0000 0.0000 1716.4217 -7344.4798 296.8188 -9060.9015 -7328.9010 298.3949 -148.4748 -47.0374 29288.0225 -524.0396 -454.3526
ENERGY: 600000 1.7495 12.2863 7.9914 0.0000 -10648.0835 1516.8537 0.0000 0.0000 1753.8129 -7355.3898 303.2848 -9109.2027 -7308.9239 301.3481 858.1135 927.4127 29623.4750 -240.3571 -178.5260
ENERGY: 900000 0.8642 12.5089 8.4325 0.0000 -10333.4061 1290.1322 0.0000 0.0000 1689.4561 -7332.0122 292.1557 -9021.4683 -7320.0202 298.7064 -907.1215 -836.3741 30178.5852 -403.8526 -352.2447
ENERGY: 1200000 4.8791 10.5367 7.8375 0.0000 -10613.2768 1495.2202 0.0000 0.0000 1678.9204 -7415.8828 290.3337 -9094.8032 -7323.8156 298.1785 466.5203 455.8921 29976.9162 -216.6485 -170.3396
ENERGY: 1500000 0.9012 10.9227 5.7119 0.0000 -10278.0852 1293.8631 0.0000 0.0000 1703.6455 -7263.0407 294.6094 -8966.6862 -7321.4952 297.3695 -501.7944 -448.5892 29905.1927 -263.5939 -214.5774
TCL: Running FEP window   7: Lambda1 0.6999999999999997 Lambda2 0.6499999999999997 [dLambda -0.050000000000000044]
TCL: Setting parameter firsttimestep to 0
TCL: Setting parameter alchLambda to 0.6999999999999997
Info: NONBONDED TABLE R-SQUARED SPACING: 0.0625
Info: NONBONDED TABLE SIZE: 705 POINTS
TCL: Setting parameter alchLambda2 to 0.6499999999999997
Info: NONBONDED TABLE R-SQUARED SPACING: 0.0625
Info: NONBONDED TABLE SIZE: 705 POINTS
TCL: Running for 1500000 steps
ETITLE: TS BOND ANGLE DIHED IMPRP ELECT VDW BOUNDARY MISC KINETIC TOTAL TEMP POTENTIAL TOTALAVG TEMPAVG PRESSURE GPRESSURE VOLUME PRESSAVG GPRESSAVG
ENERGY: 0 0.9012 10.9227 5.7119 0.0000 -10277.1719 1294.0673 0.0000 0.0000 1702.7569 -7262.8119 294.4558 -8965.5688 -7262.8119 294.4558 -518.4246 -456.5320 29905.1927 -518.4246 -456.5320
ENERGY: 300000 2.0456 11.3908 6.6448 0.0000 -10403.6808 1359.1422 0.0000 0.0000 1740.5801 -7283.8772 300.9965 -9024.4573 -7294.2490 298.1825 -63.5356 -7.2735 29715.7552 -82.5118 -22.1386
ENERGY: 600000 2.7548 18.1827 7.3449 0.0000 -10353.0596 1304.1319 0.0000 0.0000 1748.2280 -7272.4173 302.3190 -9020.6452 -7296.6068 299.3033 -713.8057 -663.5697 29940.9460 32.2944 92.1658
ENERGY: 900000 2.5193 7.9123 7.1089 0.0000 -10517.7661 1377.2392 0.0000 0.0000 1799.2067 -7323.7796 311.1347 -9122.9864 -7306.7825 301.3696 -187.2249 -87.4507 29577.0771 31.7680 99.6307
ENERGY: 1200000 2.0759 12.1199 6.5662 0.0000 -10477.6799 1414.3505 0.0000 0.0000 1716.2927 -7326.2747 296.7965 -9042.5674 -7321.1919 299.9768 344.3493 409.1231 29440.6292 46.3671 108.8255
ENERGY: 1500000 5.1241 12.8094 8.0263 0.0000 -10506.1461 1428.5307 0.0000 0.0000 1724.5426 -7327.1129 298.2231 -9051.6555 -7319.6671 300.2495 -92.1431 -9.5543 29995.8974 17.1092 78.5492
TCL: Running FEP window   8: Lambda1 0.6499999999999997 Lambda2 0.5999999999999996 [dLambda -0.050000000000000044]
TCL: Setting parameter firsttimestep to 0
TCL: Setting parameter alchLambda to 0.6499999999999997
Info: NONBONDED TABLE R-SQUARED SPACING: 0.0625
Info: NONBONDED TABLE SIZE: 705 POINTS
TCL: Setting parameter alchLambda2 to 0.5999999999999996
Info: NONBONDED TABLE R-SQUARED SPACING: 0.0625
Info: NONBONDED TABLE SIZE: 705 POINTS
TCL: Running for 1500000 steps
ETITLE: TS BOND ANGLE DIHED IMPRP ELECT VDW BOUNDARY MISC KINETIC TOTAL TEMP POTENTIAL TOTALAVG TEMPAVG PRESSURE GPRESSURE VOLUME PRESSAVG GPRESSAVG
ENERGY: 0 5.1241 12.8094 8.0263 0.0000 -10505.9069 1428.6036 0.0000 0.0000 1723.6530 -7327.6906 298.0693 -9051.3436 -7327.6906 298.0693 -100.0209 -22.6920 29995.8974 -100.0209 -22.6920
ENERGY: 300000 3.3928 10.1712 7.6996 0.0000 -10568.7000 1415.8484 0.0000 0.0000 1709.5256 -7422.0624 295.6263 -9131.5880 -7371.7458 296.4337 -10.6042 56.8495 29379.1300 -27.8268 34.8322
ENERGY: 600000 2.2425 13.7814 11.3730 0.0000 -10532.5203 1435.8323 0.0000 0.0000 1756.4986 -7312.7926 303.7492 -9069.2912 -7355.4729 298.2955 357.4441 418.2909 29474.4635 -5.3799 49.8926
ENERGY: 900000 2.6505 10.0731 7.4990 0.0000 -10414.1912 1388.6660 0.0000 0.0000 1743.0357 -7262.2669 301.4211 -9005.3026 -7330.6748 299.3667 -3.6899 100.7814 29811.8664 49.1851 111.2001
ENERGY: 1200000 1.1111 12.9479 8.4693 0.0000 -10566.5263 1473.7606 0.0000 0.0000 1716.6765 -7353.5609 296.8629 -9070.2374 -7336.6533 299.2529 342.3258 433.3986 29809.6259 -57.1839 6.4335
ENERGY: 1500000 3.7573 10.3666 7.6963 0.0000 -10584.9176 1485.4216 0.0000 0.0000 1759.7509 -7317.9249 304.3117 -9077.6758 -7329.6958 300.0374 724.1295 838.8663 29879.2497 97.8563 164.3699
TCL: Running FEP window   9: Lambda1 0.5999999999999996 Lambda2 0.5499999999999996 [dLambda -0.050000000000000044]
TCL: Setting parameter firsttimestep to 0
TCL: Setting parameter alchLambda to 0.5999999999999996
Info: NONBONDED TABLE R-SQUARED SPACING: 0.0625
Info: NONBONDED TABLE SIZE: 705 POINTS
TCL: Setting parameter alchLambda2 to 0.5499999999999996
Info: NONBONDED TABLE R-SQUARED SPACING: 0.0625
Info: NONBONDED TABLE SIZE: 705 POINTS
TCL: Running for 1500000 steps
ETITLE: TS BOND ANGLE DIHED IMPRP ELECT VDW BOUNDARY MISC KINETIC TOTAL TEMP POTENTIAL TOTALAVG TEMPAVG PRESSURE GPRESSURE VOLUME PRESSAVG GPRESSAVG
ENERGY: 0 3.7573 10.3665 7.6963 0.0000 -10584.9629 1485.2393 0.0000 0.0000 1758.9026 -7319.0008 304.1650 -9077.9035 -7319.0008 304.1650 731.3642 826.4716 29879.2497 731.3642 826.4716
ENERGY: 300000 1.9637 13.6042 7.5551 0.0000 -10529.1790 1425.7260 0.0000 0.0000 1730.6955 -7349.6344 299.2871 -9080.3299 -7313.4482 303.0205 170.4182 161.1021 29660.8984 457.9853 524.5180
ENERGY: 600000 4.8781 8.2131 6.8167 0.0000 -10522.5629 1433.1547 0.0000 0.0000 1784.9150 -7284.5853 308.6633 -9069.5003 -7312.9542 303.3697 7.2471 27.7987 29785.2607 133.0058 182.7311
ENERGY: 900000 2.9085 16.9049 12.2262 0.0000 -10533.5449 1467.5005 0.0000 0.0000 1778.0946 -7255.9101 307.4838 -9034.0047 -7297.6972 304.5788 620.7221 711.9282 29593.0764 251.9792 307.9521
ENERGY: 1200000 3.3689 14.8468 6.4201 0.0000 -10387.2756 1359.9487 0.0000 0.0000 1708.4292 -7294.2620 295.4367 -9002.6911 -7304.7387 303.4340 -227.6827 -166.6648 30044.2070 254.7731 306.9825
ENERGY: 1500000 2.0008 15.0983 7.4140 0.0000 -10561.4809 1414.3054 0.0000 0.0000 1721.8581 -7400.8042 297.7589 -9122.6624 -7320.8750 302.3509 69.1661 113.7505 29390.3812 182.3820 233.5741
TCL: Running FEP window  10: Lambda1 0.5499999999999996 Lambda2 0.4999999999999996 [dLambda -0.04999999999999999]
TCL: Setting parameter firsttimestep to 0
TCL: Setting parameter alchLambda to 0.5499999999999996
Info: NONBONDED TABLE R-SQUARED SPACING: 0.0625
Info: NONBONDED TABLE SIZE: 705 POINTS
TCL: Setting parameter alchLambda2 to 0.4999999999999996
Info: NONBONDED TABLE R-SQUARED SPACING: 0.0625
Info: NONBONDED TABLE SIZE: 705 POINTS
TCL: Running for 1500000 steps
ETITLE: TS BOND ANGLE DIHED IMPRP ELECT VDW BOUNDARY MISC KINETIC TOTAL TEMP POTENTIAL TOTALAVG TEMPAVG PRESSURE GPRESSURE VOLUME PRESSAVG GPRESSAVG
ENERGY: 0 2.0008 15.0983 7.4140 0.0000 -10560.1829 1414.5242 0.0000 0.0000 1720.9861 -7400.1595 297.6081 -9121.1456 -7400.1595 297.6081 25.9198 109.0203 29390.3812 25.9198 109.0203
ENERGY: 300000 4.3352 10.2418 7.5316 0.0000 -10551.1343 1412.3987 0.0000 0.0000 1745.3409 -7371.2861 301.8198 -9116.6270 -7357.3073 297.5246 -304.0451 -177.8891 29518.6207 8.2695 103.7064
ENERGY: 600000 2.5344 13.6543 7.5649 0.0000 -10504.3309 1492.8232 0.0000 0.0000 1745.3059 -7242.4482 301.8137 -8987.7541 -7337.5725 298.3642 1328.5428 1333.4105 29323.1979 -7.6062 57.9220
ENERGY: 900000 2.9810 13.0925 8.0653 0.0000 -10386.0336 1364.9239 0.0000 0.0000 1720.9308 -7276.0400 297.5985 -8996.9708 -7332.1533 297.2839 -219.5172 -221.6048 29938.7309 -123.1736 -72.1839
ENERGY: 1200000 3.7995 12.7481 8.5098 0.0000 -10443.4488 1329.4594 0.0000 0.0000 1773.4973 -7315.4348 306.6888 -9088.9320 -7313.3174 299.4334 -676.0586 -631.7780 29649.0010 -109.7816 -54.0247
ENERGY: 1500000 3.0828 13.6851 6.4823 0.0000 -10431.1588 1336.1342 0.0000 0.0000 1756.3858 -7315.3887 303.7297 -9071.7745 -7313.9746 299.2940 -850.4573 -748.5577 30100.1821 -125.6353 -66.0037
TCL: Running FEP window  11: Lambda1 0.4999999999999996 Lambda2 0.4499999999999996 [dLambda -0.04999999999999999]
TCL: Setting parameter firsttimestep to 0
TCL: Setting parameter alchLambda to 0.4999999999999996
Info: NONBONDED TABLE R-SQUARED SPACING: 0.0625
Info: NONBONDED TABLE SIZE: 705 POINTS
TCL: Setting parameter alchLambda2 to 0.4499999999999996
Info: NONBONDED TABLE R-SQUARED SPACING: 0.0625
Info: NONBONDED TABLE SIZE: 705 POINTS
TCL: Running for 1500000 steps
ETITLE: TS BOND ANGLE DIHED IMPRP ELECT VDW BOUNDARY MISC KINETIC TOTAL TEMP POTENTIAL TOTALAVG TEMPAVG PRESSURE GPRESSURE VOLUME PRESSAVG GPRESSAVG
ENERGY: 0 3.0828 13.6851 6.4823 0.0000 -10431.2489 1336.9618 0.0000 0.0000 1755.5478 -7315.4892 303.5848 -9071.0370 -7315.4892 303.5848 -842.2916 -748.3591 30100.1821 -842.2916 -748.3591
ENERGY: 300000 2.0038 10.7575 8.3760 0.0000 -10607.5172 1513.4909 0.0000 0.0000 1758.1207 -7314.7684 304.0298 -9072.8891 -7310.6267 302.3696 559.3458 657.9480 30135.4502 56.9651 98.6938
ENERGY: 600000 2.5254 13.9670 8.0869 0.0000 -10462.4394 1459.6257 0.0000 0.0000 1735.2781 -7242.9562 300.0796 -8978.2344 -7284.0211 304.1613 715.0525 792.0451 29651.2458 34.0577 83.6162
ENERGY: 900000 2.6896 16.7044 7.0292 0.0000 -10496.9571 1389.0656 0.0000 0.0000 1709.3390 -7372.1293 295.5940 -9081.4683 -7297.0690 303.1337 -481.6762 -393.7099 29955.4090 -107.6334 -47.2287
ENERGY: 1200000 2.8535 13.2462 6.3500 0.0000 -10353.2953 1318.7717 0.0000 0.0000 1682.8935 -7329.1804 291.0208 -9012.0738 -7298.8996 301.4377 -879.1185 -774.8085 30073.5831 -159.0180 -95.4325
ENERGY: 1500000 6.7096 11.1973 10.1021 0.0000 -10590.9907 1453.5808 0.0000 0.0000 1737.0887 -7372.3122 300.3927 -9109.4009 -7302.9811 301.2952 247.6887 336.0356 29457.7576 -124.0923 -59.9706
TCL: Running FEP window  12: Lambda1 0.4499999999999996 Lambda2 0.39999999999999963 [dLambda -0.04999999999999999]
TCL: Setting parameter firsttimestep to 0
TCL: Setting parameter alchLambda to 0.4499999999999996
Info: NONBONDED TABLE R-SQUARED SPACING: 0.0625
Info: NONBONDED TABLE SIZE: 705 POINTS
TCL: Setting parameter alchLambda2 to 0.39999999999999963
Info: NONBONDED TABLE R-SQUARED SPACING: 0.0625
Info: NONBONDED TABLE SIZE: 705 POINTS
TCL: Running for 1500000 steps
ETITLE: TS BOND ANGLE DIHED IMPRP ELECT VDW BOUNDARY MISC KINETIC TOTAL TEMP POTENTIAL TOTALAVG TEMPAVG PRESSURE GPRESSURE VOLUME PRESSAVG GPRESSAVG
ENERGY: 0 6.7096 11.1973 10.1021 0.0000 -10590.9909 1453.4772 0.0000 0.0000 1736.2376 -7373.2671 300.2455 -9109.5047 -7373.2671 300.2455 260.7078 325.7093 29457.7576 260.7078 325.7093
ENERGY: 300000 5.2126 15.7686 6.0601 0.0000 -10363.1989 1315.3540 0.0000 0.0000 1701.5583 -7319.2452 294.2485 -9020.8035 -7314.9791 297.7967 -484.5028 -419.3739 29659.4619 -252.2307 -202.2906
ENERGY: 600000 8.2668 18.4514 8.3145 0.0000 -10424.9837 1358.3553 0.0000 0.0000 1752.3516 -7279.2442 303.0321 -9031.5957 -7318.4780 300.2064 -373.1468 -329.4464 29708.4035 -7.2316 37.4169
ENERGY: 900000 3.1287 13.0075 9.2708 0.0000 -10402.1216 1320.3438 0.0000 0.0000 1764.9003 -7291.4706 305.2021 -9056.3709 -7325.1781 299.5404 -963.7739 -889.6492 29973.6704 -130.3369 -67.8280
ENERGY: 1200000 1.4080 13.3395 8.4065 0.0000 -10474.0431 1391.4772 0.0000 0.0000 1746.7409 -7312.6710 302.0619 -9059.4119 -7322.9285 300.2270 7.2666 62.8605 29443.2347 -90.3227 -32.8046
ENERGY: 1500000 1.7905 10.1812 9.8316 0.0000 -10370.7692 1300.0333 0.0000 0.0000 1770.7378 -7278.1947 306.2116 -9048.9325 -7312.6985 300.1466 -584.2433 -551.3900 29672.9523 -168.4262 -116.7680
TCL: Running FEP window  13: Lambda1 0.39999999999999963 Lambda2 0.34999999999999964 [dLambda -0.04999999999999999]
TCL: Setting parameter firsttimestep to 0
TCL: Setting parameter alchLambda to 0.39999999999999963
Info: NONBONDED TABLE R-SQUARED SPACING: 0.0625
Info: NONBONDED TABLE SIZE: 705 POINTS
TCL: Setting parameter alchLambda2 to 0.34999999999999964
Info: NONBONDED TABLE R-SQUARED SPACING: 0.0625
Info: NONBONDED TABLE SIZE: 705 POINTS
TCL: Running for 1500000 steps
ETITLE: TS BOND ANGLE DIHED IMPRP ELECT VDW BOUNDARY MISC KINETIC TOTAL TEMP POTENTIAL TOTALAVG TEMPAVG PRESSURE GPRESSURE VOLUME PRESSAVG GPRESSAVG
ENERGY: 0 1.7905 10.1812 9.8316 0.0000 -10370.7688 1300.3699 0.0000 0.0000 1769.8722 -7278.7234 306.0619 -9048.5956 -7278.7234 306.0619 -636.5526 -556.5498 29672.9523 -636.5526 -556.5498
ENERGY: 300000 3.4896 11.4170 9.3413 0.0000 -10392.9676 1338.0536 0.0000 0.0000 1659.4891 -7371.1770 286.9735 -9030.6660 -7348.4650 296.6969 -513.3575 -465.2580 29805.3647 -320.3403 -256.1710
ENERGY: 600000 3.8120 18.3852 7.8045 0.0000 -10549.9167 1528.5862 0.0000 0.0000 1705.6454 -7285.6835 294.9553 -8991.3289 -7327.3015 297.2011 1016.2175 1087.2636 29470.0641 -105.0316 -41.5070
ENERGY: 900000 3.1608 15.4238 7.1667 0.0000 -10479.6333 1503.1338 0.0000 0.0000 1705.1876 -7245.5606 294.8761 -8950.7482 -7324.5474 297.3675 1001.1900 1139.8873 29847.5150 89.9690 159.5745
ENERGY: 1200000 4.9838 10.6797 8.4186 0.0000 -10531.8735 1446.8007 0.0000 0.0000 1691.1929 -7369.7978 292.4560 -9060.9907 -7327.7520 297.7533 350.2207 402.6563 29849.3347 26.5050 96.6403
ENERGY: 1500000 1.8303 11.1605 8.6569 0.0000 -10484.9391 1366.5214 0.0000 0.0000 1710.0923 -7386.6777 295.7243 -9096.7701 -7323.6400 297.8983 -676.1048 -572.4975 30250.4955 39.3296 102.8491
TCL: Running FEP window  14: Lambda1 0.34999999999999964 Lambda2 0.29999999999999966 [dLambda -0.04999999999999999]
TCL: Setting parameter firsttimestep to 0
TCL: Setting parameter alchLambda to 0.34999999999999964
Info: NONBONDED TABLE R-SQUARED SPACING: 0.0625
Info: NONBONDED TABLE SIZE: 705 POINTS
TCL: Setting parameter alchLambda2 to 0.29999999999999966
Info: NONBONDED TABLE R-SQUARED SPACING: 0.0625
Info: NONBONDED TABLE SIZE: 705 POINTS
TCL: Running for 1500000 steps
ETITLE: TS BOND ANGLE DIHED IMPRP ELECT VDW BOUNDARY MISC KINETIC TOTAL TEMP POTENTIAL TOTALAVG TEMPAVG PRESSURE GPRESSURE VOLUME PRESSAVG GPRESSAVG
ENERGY: 0 1.8303 11.1605 8.6569 0.0000 -10484.9369 1366.3894 0.0000 0.0000 1709.2261 -7387.6737 295.5745 -9096.8998 -7387.6737 295.5745 -666.8509 -581.8579 30250.4955 -666.8509 -581.8579
ENERGY: 300000 4.2290 9.1485 9.4044 0.0000 -10303.6587 1319.2435 0.0000 0.0000 1725.9194 -7235.7139 298.4612 -8961.6332 -7313.2051 298.9640 -507.9978 -458.1791 29749.7859 -282.0155 -213.5088
ENERGY: 600000 2.2008 12.8927 8.6410 0.0000 -10457.5207 1357.4716 0.0000 0.0000 1717.1720 -7359.1427 296.9485 -9076.3147 -7339.5386 297.5588 -440.9978 -382.6121 29640.2862 -314.0944 -250.3887
ENERGY: 900000 3.2283 8.0288 6.4802 0.0000 -10634.5664 1519.6233 0.0000 0.0000 1749.4571 -7347.7488 302.5316 -9097.2059 -7330.7885 299.0495 1031.4279 1114.5992 29362.8356 -129.0824 -71.0914
ENERGY: 1200000 1.4518 12.9511 7.8007 0.0000 -10601.9401 1495.2237 0.0000 0.0000 1756.7263 -7327.7866 303.7886 -9084.5129 -7327.9664 298.9638 761.8578 788.6007 29581.8302 -132.3342 -65.6460
ENERGY: 1500000 2.8251 13.4139 6.9580 0.0000 -10484.4750 1363.4430 0.0000 0.0000 1676.0432 -7421.7918 289.8362 -9097.8350 -7333.8255 299.4316 -586.4353 -489.1749 29654.3050 -197.1210 -130.8636
TCL: Running FEP window  15: Lambda1 0.29999999999999966 Lambda2 0.24999999999999967 [dLambda -0.04999999999999999]
TCL: Setting parameter firsttimestep to 0
TCL: Setting parameter alchLambda to 0.29999999999999966
Info: NONBONDED TABLE R-SQUARED SPACING: 0.0625
Info: NONBONDED TABLE SIZE: 705 POINTS
TCL: Setting parameter alchLambda2 to 0.24999999999999967
Info: NONBONDED TABLE R-SQUARED SPACING: 0.0625
Info: NONBONDED TABLE SIZE: 705 POINTS
TCL: Running for 1500000 steps
ETITLE: TS BOND ANGLE DIHED IMPRP ELECT VDW BOUNDARY MISC KINETIC TOTAL TEMP POTENTIAL TOTALAVG TEMPAVG PRESSURE GPRESSURE VOLUME PRESSAVG GPRESSAVG
ENERGY: 0 2.8251 13.4139 6.9580 0.0000 -10484.4748 1363.8013 0.0000 0.0000 1675.1555 -7422.3209 289.6827 -9097.4765 -7422.3209 289.6827 -589.2883 -495.1297 29654.3050 -589.2883 -495.1297
ENERGY: 300000 1.4866 13.4595 10.3065 0.0000 -10615.1289 1481.8275 0.0000 0.0000 1787.5820 -7320.4668 309.1245 -9108.0488 -7336.7719 301.9209 628.4249 775.0615 29164.4138 -148.2223 -40.2091
ENERGY: 600000 2.5652 13.6806 7.4996 0.0000 -10542.8663 1455.2653 0.0000 0.0000 1737.7262 -7326.1294 300.5030 -9063.8556 -7312.6310 302.1375 487.2148 558.1596 29440.0714 -138.0916 -54.8135
ENERGY: 900000 4.1842 10.2674 7.3987 0.0000 -10291.9149 1343.6348 0.0000 0.0000 1693.8984 -7232.5316 292.9239 -8926.4300 -7310.8307 299.4348 -388.6376 -267.8954 30024.3081 -213.2739 -120.5248
ENERGY: 1200000 2.4492 18.2524 8.3515 0.0000 -10464.2432 1409.5244 0.0000 0.0000 1787.8994 -7237.7662 309.1794 -9025.6656 -7305.9147 300.1686 170.2670 237.5517 29625.3834 -230.1724 -147.9052
ENERGY: 1500000 2.2596 12.0967 7.6367 0.0000 -10534.4072 1369.9025 0.0000 0.0000 1820.8758 -7321.6359 314.8819 -9142.5117 -7314.1116 300.5586 -470.4554 -391.5095 29460.4425 -235.1242 -155.9228
TCL: Running FEP window  16: Lambda1 0.24999999999999967 Lambda2 0.19999999999999968 [dLambda -0.04999999999999999]
TCL: Setting parameter firsttimestep to 0
TCL: Setting parameter alchLambda to 0.24999999999999967
Info: NONBONDED TABLE R-SQUARED SPACING: 0.0625
Info: NONBONDED TABLE SIZE: 705 POINTS
TCL: Setting parameter alchLambda2 to 0.19999999999999968
Info: NONBONDED TABLE R-SQUARED SPACING: 0.0625
Info: NONBONDED TABLE SIZE: 705 POINTS
TCL: Running for 1500000 steps
ETITLE: TS BOND ANGLE DIHED IMPRP ELECT VDW BOUNDARY MISC KINETIC TOTAL TEMP POTENTIAL TOTALAVG TEMPAVG PRESSURE GPRESSURE VOLUME PRESSAVG GPRESSAVG
ENERGY: 0 2.2596 12.0967 7.6367 0.0000 -10534.4076 1369.8085 0.0000 0.0000 1820.0257 -7322.5805 314.7349 -9142.6061 -7322.5805 314.7349 -470.6012 -399.2599 29460.4425 -470.6012 -399.2599
ENERGY: 300000 3.5323 10.0702 6.1385 0.0000 -10434.4985 1397.3940 0.0000 0.0000 1687.7366 -7329.6269 291.8583 -9017.3635 -7342.5883 300.9973 -84.2120 29.3809 29775.4289 -259.8719 -199.9984
ENERGY: 600000 7.1450 13.7323 7.2992 0.0000 -10473.5503 1411.9614 0.0000 0.0000 1752.9411 -7280.4712 303.1340 -9033.4123 -7320.9242 301.7198 120.1648 100.7983 29330.0208 -206.0323 -143.8832
ENERGY: 900000 5.9293 12.5271 7.9114 0.0000 -10661.2398 1478.0110 0.0000 0.0000 1733.0012 -7423.8598 299.6859 -9156.8610 -7327.0877 300.9173 166.6277 246.4518 29725.4449 -195.8166 -144.2302
ENERGY: 1200000 4.3108 14.3897 12.1347 0.0000 -10452.4524 1348.0997 0.0000 0.0000 1743.5864 -7329.9311 301.5164 -9073.5175 -7331.9537 299.8822 -682.1913 -578.1819 29730.3490 -234.2454 -176.1524
ENERGY: 1500000 4.0850 18.5622 5.6519 0.0000 -10493.1213 1448.8558 0.0000 0.0000 1738.3410 -7277.6255 300.6093 -9015.9665 -7326.8986 300.2871 530.9092 563.6349 29643.3646 -19.2617 32.4699
TCL: Running FEP window  17: Lambda1 0.19999999999999968 Lambda2 0.1499999999999997 [dLambda -0.04999999999999999]
TCL: Setting parameter firsttimestep to 0
TCL: Setting parameter alchLambda to 0.19999999999999968
Info: NONBONDED TABLE R-SQUARED SPACING: 0.0625
Info: NONBONDED TABLE SIZE: 705 POINTS
TCL: Setting parameter alchLambda2 to 0.1499999999999997
Info: NONBONDED TABLE R-SQUARED SPACING: 0.0625
Info: NONBONDED TABLE SIZE: 705 POINTS
TCL: Running for 1500000 steps
ETITLE: TS BOND ANGLE DIHED IMPRP ELECT VDW BOUNDARY MISC KINETIC TOTAL TEMP POTENTIAL TOTALAVG TEMPAVG PRESSURE GPRESSURE VOLUME PRESSAVG GPRESSAVG
ENERGY: 0 4.0850 18.5622 5.6519 0.0000 -10493.1212 1448.7672 0.0000 0.0000 1737.4475 -7278.6074 300.4548 -9016.0549 -7278.6074 300.4548 462.0935 553.0696 29643.3646 462.0935 553.0696
ENERGY: 300000 2.4222 10.1833 6.1299 0.0000 -10373.5706 1305.4959 0.0000 0.0000 1687.7551 -7361.5843 291.8615 -9049.3394 -7328.3016 298.5398 -752.1853 -735.7595 29467.3216 94.0598 173.3491
ENERGY: 600000 2.9618 14.2771 7.5124 0.0000 -10500.0803 1393.0754 0.0000 0.0000 1750.4967 -7331.7569 302.7113 -9082.2535 -7310.2873 300.6119 -110.3121 -52.3967 29527.9424 1.4465 80.7478
ENERGY: 900000 2.7618 13.5188 7.0904 0.0000 -10530.6123 1417.2088 0.0000 0.0000 1749.4348 -7340.5976 302.5277 -9090.0325 -7317.6479 301.3561 40.3572 78.7333 29453.3492 66.7979 138.5342
ENERGY: 1200000 6.5275 13.6799 9.3247 0.0000 -10423.6007 1378.2315 0.0000 0.0000 1694.4103 -7321.4268 293.0124 -9015.8371 -7317.9534 300.9348 -185.9637 -112.0971 29291.7706 171.7618 241.6255
ENERGY: 1500000 3.5509 12.3749 6.6899 0.0000 -10552.6180 1419.9870 0.0000 0.0000 1743.8859 -7366.1294 301.5681 -9110.0153 -7320.2272 301.1150 251.8829 281.8959 28947.8184 200.7633 264.9480
TCL: Running FEP window  18: Lambda1 0.1499999999999997 Lambda2 0.09999999999999969 [dLambda -0.05 ]
TCL: Setting parameter firsttimestep to 0
TCL: Setting parameter alchLambda to 0.1499999999999997
Info: NONBONDED TABLE R-SQUARED SPACING: 0.0625
Info: NONBONDED TABLE SIZE: 705 POINTS
TCL: Setting parameter alchLambda2 to 0.09999999999999969
Info: NONBONDED TABLE R-SQUARED SPACING: 0.0625
Info: NONBONDED TABLE SIZE: 705 POINTS
TCL: Running for 1500000 steps
ETITLE: TS BOND ANGLE DIHED IMPRP ELECT VDW BOUNDARY MISC KINETIC TOTAL TEMP POTENTIAL TOTALAVG TEMPAVG PRESSURE GPRESSURE VOLUME PRESSAVG GPRESSAVG
ENERGY: 0 3.5509 12.3749 6.6899 0.0000 -10552.6165 1418.2818 0.0000 0.0000 1743.0426 -7368.6765 301.4223 -9111.7191 -7368.6765 301.4223 179.5230 268.4929 28947.8184 179.5230 268.4929
ENERGY: 300000 3.0259 9.7526 6.9617 0.0000 -10487.9065 1466.0500 0.0000 0.0000 1750.1030 -7252.0133 302.6433 -9002.1163 -7315.3766 302.2554 637.4945 696.0082 29693.9601 268.8865 339.6948
ENERGY: 600000 1.4860 9.0551 7.0655 0.0000 -10446.6636 1365.6716 0.0000 0.0000 1736.4210 -7326.9645 300.2772 -9063.3855 -7295.2226 303.8642 -339.5457 -327.4898 29710.1779 178.1553 249.1784
ENERGY: 900000 2.2268 14.2058 7.2352 0.0000 -10467.1671 1375.1400 0.0000 0.0000 1739.8439 -7328.5154 300.8692 -9068.3593 -7301.2208 302.8756 -346.4594 -289.4365 29792.4497 67.5991 124.9699
ENERGY: 1200000 0.6471 11.3234 10.1772 0.0000 -10497.1556 1366.5785 0.0000 0.0000 1724.2960 -7384.1332 298.1805 -9108.4293 -7308.7284 301.8962 -462.0870 -383.6089 29563.2792 -80.6645 -24.4469
ENERGY: 1500000 2.0395 11.3396 6.7840 0.0000 -10381.5727 1323.5728 0.0000 0.0000 1806.5092 -7231.3275 312.3975 -9037.8367 -7298.8897 303.1388 -730.0904 -722.9283 29957.8677 -147.1992 -91.8696
TCL: Running FEP window  19: Lambda1 0.09999999999999969 Lambda2 0.049999999999999684 [dLambda -0.05 ]
TCL: Setting parameter firsttimestep to 0
TCL: Setting parameter alchLambda to 0.09999999999999969
Info: NONBONDED TABLE R-SQUARED SPACING: 0.0625
Info: NONBONDED TABLE SIZE: 705 POINTS
TCL: Setting parameter alchLambda2 to 0.049999999999999684
Info: NONBONDED TABLE R-SQUARED SPACING: 0.0625
Info: NONBONDED TABLE SIZE: 705 POINTS
TCL: Running for 1500000 steps
ETITLE: TS BOND ANGLE DIHED IMPRP ELECT VDW BOUNDARY MISC KINETIC TOTAL TEMP POTENTIAL TOTALAVG TEMPAVG PRESSURE GPRESSURE VOLUME PRESSAVG GPRESSAVG
ENERGY: 0 2.0395 11.3396 6.7840 0.0000 -10381.5735 1321.8404 0.0000 0.0000 1805.6310 -7233.9389 312.2457 -9039.5699 -7233.9389 312.2457 -819.9842 -734.1191 29957.8677 -819.9842 -734.1191
ENERGY: 300000 3.1508 15.4371 9.8733 0.0000 -10423.4846 1368.1614 0.0000 0.0000 1765.3081 -7261.5539 305.2727 -9026.8620 -7282.3879 303.7611 -350.0464 -366.9610 29913.4441 -267.7972 -254.2768
ENERGY: 600000 4.8521 16.2842 8.9661 0.0000 -10508.0767 1407.8254 0.0000 0.0000 1745.2065 -7324.9425 301.7965 -9070.1490 -7300.3739 301.2506 -350.0989 -237.0362 29848.8890 -88.5356 -69.8852
ENERGY: 900000 2.3822 11.4343 8.1227 0.0000 -10446.9288 1430.5569 0.0000 0.0000 1711.9915 -7282.4413 296.0527 -8994.4328 -7293.3197 300.1577 219.7813 246.3828 29632.9185 98.3222 118.2974
ENERGY: 1200000 1.4480 13.3602 8.2747 0.0000 -10381.6430 1354.9060 0.0000 0.0000 1732.4411 -7271.2129 299.5890 -9003.6541 -7298.4822 299.9364 -185.4733 -114.3028 29736.1897 57.6653 92.9336
ENERGY: 1500000 2.4695 8.8745 6.4993 0.0000 -10477.1830 1427.6443 0.0000 0.0000 1761.6529 -7270.0425 304.6406 -9031.6955 -7299.0338 299.3515 -188.8320 -103.7723 30149.0964 26.7825 66.5840
TCL: Running FEP window  20: Lambda1 0.049999999999999684 Lambda2 0.0    [dLambda -0.049999999999999684]
TCL: Setting parameter firsttimestep to 0
TCL: Setting parameter alchLambda to 0.049999999999999684
Info: NONBONDED TABLE R-SQUARED SPACING: 0.0625
Info: NONBONDED TABLE SIZE: 705 POINTS
TCL: Setting parameter alchLambda2 to 0.0
Info: NONBONDED TABLE R-SQUARED SPACING: 0.0625
Info: NONBONDED TABLE SIZE: 705 POINTS
TCL: Running for 1500000 steps
ETITLE: TS BOND ANGLE DIHED IMPRP ELECT VDW BOUNDARY MISC KINETIC TOTAL TEMP POTENTIAL TOTALAVG TEMPAVG PRESSURE GPRESSURE VOLUME PRESSAVG GPRESSAVG
ENERGY: 0 2.4695 8.8745 6.4993 0.0000 -10477.1820 1425.0958 0.0000 0.0000 1760.7866 -7273.4564 304.4908 -9034.2429 -7273.4564 304.4908 -180.7429 -112.9438 30149.0964 -180.7429 -112.9438
ENERGY: 300000 5.2479 15.0798 8.1940 0.0000 -10425.9636 1357.7764 0.0000 0.0000 1722.0946 -7317.5709 297.7998 -9039.6654 -7341.1257 298.7201 -329.1621 -322.5995 29678.1895 -111.0272 -56.8328
ENERGY: 600000 3.7370 12.5129 9.3652 0.0000 -10662.6846 1538.9679 0.0000 0.0000 1705.3760 -7392.7255 294.9087 -9098.1015 -7350.5757 297.1421 549.7978 650.0270 29839.3156 -64.0426 0.5783
ENERGY: 900000 2.6665 20.3936 7.3300 0.0000 -10447.8834 1462.3980 0.0000 0.0000 1739.7102 -7215.3850 300.8460 -8955.0952 -7330.5409 298.8291 629.2707 650.3514 29605.9115 0.4915 54.1736
ENERGY: 1200000 1.9516 11.6393 5.8674 0.0000 -10613.0666 1526.0167 0.0000 0.0000 1714.7410 -7352.8506 296.5281 -9067.5916 -7327.1000 299.5551 1151.1307 1207.9013 29123.3588 0.3851 63.3413
ENERGY: 1500000 2.5590 15.2605 9.5161 0.0000 -10326.7435 1292.7418 0.0000 0.0000 1664.4192 -7342.2470 287.8261 -9006.6662 -7327.7144 299.0171 -1301.5822 -1189.1203 30271.3011 -15.3978 55.3089
TCL: Exiting due to exit command.
