Info: SIMULATION PARAMETERS:
Info: TIMESTEP               2
Info: NUMBER OF STEPS        0
Info: STEPS PER CYCLE        10
Info: PERIODIC CELL BASIS 1  29.1519 0 0
Info: PERIODIC CELL BASIS 2  0 34.2035 0
Info: PERIODIC CELL BASIS 3  0 0 30.2214
Info: PERIODIC CELL CENTER   0 0 0
Info: WRAPPING WATERS AROUND PERIODIC BOUNDARIES ON OUTPUT.
Info: WRAPPING ALL CLUSTERS AROUND PERIODIC BOUNDARIES ON OUTPUT.
Info: FIRST LDB TIMESTEP     50
Info: LAST LDB TIMESTEP     -1
Info: HOM BACKGROUND SCALING 1
Info: PME BACKGROUND SCALING 1
Info: MIN ATOMS PER PATCH    40
Info: EMPTY PATCH LOAD       40 ATOMS
Info: VELOCITY FILE          mobley_6935906_equil.vel
Info: CENTER OF MASS MOVING INITIALLY? NO
Info: DIELECTRIC             1
Info: EXCLUDE                SCALED ONE-FOUR
Info: 1-4 ELECTROSTATICS SCALED BY 0.833333
Info: MODIFIED 1-4 VDW PARAMETERS WILL BE USED
Info: DCD FILENAME           mobley_6935906_prod.dcd
Info: DCD FREQUENCY          100000
Info: DCD FIRST STEP         100000
Info: DCD FILE WILL CONTAIN UNIT CELL DATA
Info: XST FILENAME           mobley_6935906_prod.xst
Info: XST FREQUENCY          100000
Info: NO VELOCITY DCD OUTPUT
Info: NO FORCE DCD OUTPUT
Info: OUTPUT FILENAME        mobley_6935906_prod
Info: BINARY OUTPUT FILES WILL BE USED
Info: RESTART FILENAME       mobley_6935906_prod.restart
Info: RESTART FREQUENCY      100000
Info: BINARY RESTART FILES WILL BE USED
Info: CUTOFF                 9
Info: PAIRLIST DISTANCE      11
Info: PAIRLIST SHRINK RATE   0.01
Info: PAIRLIST GROW RATE     0.01
Info: PAIRLIST TRIGGER       0.3
Info: PAIRLISTS PER CYCLE    2
Info: PAIRLISTS ENABLED
Info: MARGIN                 2
Info: HYDROGEN GROUP CUTOFF  2.5
Info: PATCH DIMENSION        15.5
Info: ENERGY OUTPUT STEPS    100000
Info: ENERGY EVALUATION STEPS    100000
Info: OUTPUT ENERGY PRECISION 4
Info: CROSSTERM ENERGY INCLUDED IN DIHEDRAL
Info: TIMING OUTPUT STEPS    1000000
Info: PRESSURE OUTPUT STEPS  100000
Info: ALCHEMICAL FEP ON
Info: FEP CURRENT LAMBDA VALUE     1
Info: FEP COMPARISON LAMBDA VALUE  0.95
Info: FEP INTRA-ALCHEMICAL NON-BONDED INTERACTIONS WILL BE RETAINED
Info: FEP INTRA-ALCHEMICAL BONDED INTERACTIONS WILL BE RETAINED
Info: FEP VDW SHIFTING COEFFICIENT 5
Info: FEP ELEC. ACTIVE FOR ANNIHILATED PARTICLES BETWEEN LAMBDA = 0 AND LAMBDA = 0.5
Info: FEP ELEC. ACTIVE FOR EXNIHILATED PARTICLES BETWEEN LAMBDA = 0.5 AND LAMBDA = 1
Info: FEP VDW ACTIVE FOR ANNIHILATED PARTICLES BETWEEN LAMBDA = 0 AND LAMBDA = 1
Info: FEP VDW ACTIVE FOR EXNIHILATED PARTICLES BETWEEN LAMBDA = 0 AND LAMBDA = 1
Info: FEP BOND ACTIVE FOR ANNIHILATED PARTICLES BETWEEN LAMBDA = 1 AND LAMBDA = 1
Info: FEP BOND ACTIVE FOR EXNIHILATED PARTICLES BETWEEN LAMBDA = 0 AND LAMBDA = 0
Info: LANGEVIN DYNAMICS ACTIVE
Info: LANGEVIN TEMPERATURE   300
Info: LANGEVIN USING BBK INTEGRATOR
Info: LANGEVIN DAMPING COEFFICIENT IS 1 INVERSE PS
Info: LANGEVIN DYNAMICS APPLIED TO HYDROGENS
Info: LANGEVIN PISTON PRESSURE CONTROL ACTIVE
Info:        TARGET PRESSURE IS 1.01325 BAR
Info:     OSCILLATION PERIOD IS 50 FS
Info:             DECAY TIME IS 25 FS
Info:     PISTON TEMPERATURE IS 300 K
Info:       PRESSURE CONTROL IS GROUP-BASED
Info:    INITIAL STRAIN RATE IS -0.000385034 -0.000385034 -0.000385034
Info:       CELL FLUCTUATION IS ISOTROPIC
Info: PARTICLE MESH EWALD (PME) ACTIVE
Info: PME TOLERANCE               1e-06
Info: PME EWALD COEFFICIENT       0.348832
Info: PME INTERPOLATION ORDER     4
Info: PME GRID DIMENSIONS         32 36 32
Info: PME MAXIMUM GRID SPACING    1
Info: PME CALCULATION WILL BE PERFORMED ON GPU
Info: FULL ELECTROSTATIC EVALUATION FREQUENCY      2
Info: USING VERLET I (r-RESPA) MTS SCHEME.
Info: C1 SPLITTING OF LONG RANGE ELECTROSTATICS
Info: PLACING ATOMS IN PATCHES BY HYDROGEN GROUPS
Info: RIGID BONDS TO HYDROGEN : ALL
Info:         ERROR TOLERANCE : 1e-08
Info:          MAX ITERATIONS : 100
Info: RIGID WATER USING SETTLE ALGORITHM
Info: RANDOM NUMBER SEED     1744047910
Info: USE HYDROGEN BONDS?    NO
Info: Using AMBER format force field!
Info: AMBER PARM FILE        mobley_6935906.prmtop
Info: COORDINATE PDB         mobley_6935906.pdb
Info: Exclusions will be read from PARM file!
Info: SCNB (VDW SCALING)     2
Info: USING ARITHMETIC MEAN TO COMBINE L-J SIGMA PARAMETERS
Info: BINARY COORDINATES     mobley_6935906_equil.coor
Info: SUMMARY OF PARAMETERS:
Info: 11 BONDS
Info: 17 ANGLES
Info:   17 HARMONIC
Info:   0 COSINE-BASED
Info: 24 DIHEDRAL
Info: 0 IMPROPER
Info: 0 CROSSTERM
Info: 0 VDW
Info: 36 VDW_PAIRS
Info: 0 NBTHOLE_PAIRS
Info: To read alchdata from file: mobley_6935906.pdb
Info: To read alchflag data from column: 5
Info: STRUCTURE SUMMARY:
Info: 2959 ATOMS
Info: 2958 BONDS
Info: 58 ANGLES
Info: 111 DIHEDRALS
Info: 0 IMPROPERS
Info: 0 CROSSTERMS
Info: 3086 EXCLUSIONS
Info: 2945 RIGID BONDS
Info: ALCH: 0 ATOMS TO DISAPPEAR IN FINAL STATE
Info: ALCH: 34 ATOMS TO APPEAR IN FINAL STATE
Info: 5932 DEGREES OF FREEDOM
Info: 989 HYDROGEN GROUPS
Info: 4 ATOMS IN LARGEST HYDROGEN GROUP
Info: 989 MIGRATION GROUPS
Info: 4 ATOMS IN LARGEST MIGRATION GROUP
Info: TOTAL MASS = 17761.9 amu
Info: TOTAL CHARGE = -0.000100106 e
Info: MASS DENSITY = 0.978805 g/cm^3
Info: ATOM DENSITY = 0.0981958 atoms/A^3
Info: ADDED 0 IMPLICIT EXCLUSIONS
Info: NONBONDED TABLE R-SQUARED SPACING: 0.0625
Info: NONBONDED TABLE SIZE: 705 POINTS
Info: REMOVING COM VELOCITY -0.092404 -0.0024594 -0.0203349
Info: Use 3D box decompostion in PME FFT.
Info: Updated CUDA force table with 4096 elements.
Info: Updated CUDA LJ table with 8 x 8 elements.
Info: Found 37 unique exclusion lists needing 168 bytes
TCL: Running for 1500000 steps
ETITLE: TS BOND ANGLE DIHED IMPRP ELECT VDW BOUNDARY MISC KINETIC TOTAL TEMP POTENTIAL TOTALAVG TEMPAVG PRESSURE GPRESSURE VOLUME PRESSAVG GPRESSAVG
ENERGY: 0 8.2361 21.9698 23.5787 0.0000 -10687.6100 1409.4248 0.0000 0.0000 1797.5827 -7426.8179 304.9848 -9224.4007 -7426.8179 304.9848 128.3768 217.3194 30133.6801 128.3768 217.3194
ENERGY: 300000 4.5028 19.0751 27.7591 0.0000 -10705.8709 1445.1989 0.0000 0.0000 1706.0718 -7503.2631 289.4587 -9209.3349 -7491.6794 299.1556 84.3649 118.7931 30482.1062 -6.6145 62.9795
ENERGY: 600000 5.3231 16.1989 25.4121 0.0000 -10678.8774 1420.2610 0.0000 0.0000 1768.7080 -7442.9744 300.0858 -9211.6824 -7464.0210 300.4863 37.9566 135.1796 30346.5726 -16.8276 61.6292
ENERGY: 900000 2.1275 18.0787 25.9352 0.0000 -10583.0871 1323.0341 0.0000 0.0000 1750.1110 -7463.8006 296.9305 -9213.9116 -7455.6970 300.1641 -940.2669 -849.3454 30959.0441 -88.5389 -6.8945
ENERGY: 1200000 3.8906 16.0042 22.6590 0.0000 -10713.0301 1426.9192 0.0000 0.0000 1749.7725 -7493.7844 296.8731 -9243.5569 -7453.8641 300.7777 94.7411 168.7850 30203.1502 -149.4704 -72.9082
ENERGY: 1500000 3.6662 15.0484 24.5850 0.0000 -10669.9216 1391.5755 0.0000 0.0000 1745.1050 -7489.9415 296.0812 -9235.0466 -7463.8700 299.7561 -639.5420 -543.1656 30829.5388 -196.5252 -123.3607
TCL: Running FEP window   2: Lambda1 0.95   Lambda2 0.8999999999999999 [dLambda -0.050000000000000044]
TCL: Setting parameter firsttimestep to 0
TCL: Setting parameter alchLambda to 0.95
Info: NONBONDED TABLE R-SQUARED SPACING: 0.0625
Info: NONBONDED TABLE SIZE: 705 POINTS
TCL: Setting parameter alchLambda2 to 0.8999999999999999
Info: NONBONDED TABLE R-SQUARED SPACING: 0.0625
Info: NONBONDED TABLE SIZE: 705 POINTS
TCL: Running for 1500000 steps
ETITLE: TS BOND ANGLE DIHED IMPRP ELECT VDW BOUNDARY MISC KINETIC TOTAL TEMP POTENTIAL TOTALAVG TEMPAVG PRESSURE GPRESSURE VOLUME PRESSAVG GPRESSAVG
ENERGY: 0 3.6662 15.0484 24.5850 0.0000 -10668.3856 1391.5833 0.0000 0.0000 1744.2100 -7489.2927 295.9293 -9233.5028 -7489.2927 295.9293 -648.5268 -563.5766 30829.5388 -648.5268 -563.5766
ENERGY: 300000 7.6911 11.4974 22.0542 0.0000 -10774.9365 1509.6342 0.0000 0.0000 1761.1449 -7462.9146 298.8026 -9224.0595 -7434.0075 299.8657 383.6289 440.8072 30504.9978 258.0261 332.9678
ENERGY: 600000 1.5480 15.3281 24.0072 0.0000 -10705.1236 1417.7292 0.0000 0.0000 1711.1161 -7535.3951 290.3145 -9246.5111 -7442.7647 298.4343 -185.1112 -156.7482 30518.5113 251.2161 314.5607
ENERGY: 900000 5.4660 15.9666 25.9741 0.0000 -10774.7946 1523.8047 0.0000 0.0000 1809.5319 -7394.0514 307.0121 -9203.5832 -7445.6669 300.0049 878.0313 901.2222 30522.4646 161.9478 216.7445
ENERGY: 1200000 5.4984 15.9394 23.9254 0.0000 -10646.7653 1422.1814 0.0000 0.0000 1740.2569 -7438.9637 295.2586 -9179.2206 -7447.0437 298.4527 91.5060 222.8965 30389.2618 108.5962 174.0140
ENERGY: 1500000 4.6163 15.8196 21.9357 0.0000 -10572.7434 1398.3683 0.0000 0.0000 1769.4301 -7362.5733 300.2083 -9132.0034 -7437.8376 298.5497 -320.4445 -251.8194 31034.3680 1.3549 65.3924
TCL: Running FEP window   3: Lambda1 0.8999999999999999 Lambda2 0.8499999999999999 [dLambda -0.050000000000000044]
TCL: Setting parameter firsttimestep to 0
TCL: Setting parameter alchLambda to 0.8999999999999999
Info: NONBONDED TABLE R-SQUARED SPACING: 0.0625
Info: NONBONDED TABLE SIZE: 705 POINTS
TCL: Setting parameter alchLambda2 to 0.8499999999999999
Info: NONBONDED TABLE R-SQUARED SPACING: 0.0625
Info: NONBONDED TABLE SIZE: 705 POINTS
TCL: Running for 1500000 steps
ETITLE: TS BOND ANGLE DIHED IMPRP ELECT VDW BOUNDARY MISC KINETIC TOTAL TEMP POTENTIAL TOTALAVG TEMPAVG PRESSURE GPRESSURE VOLUME PRESSAVG GPRESSAVG
ENERGY: 0 4.6163 15.8196 21.9357 0.0000 -10570.9292 1396.9753 0.0000 0.0000 1768.5873 -7362.9950 300.0653 -9131.5823 -7362.9950 300.0653 -360.5471 -280.0540 31034.3680 -360.5471 -280.0540
ENERGY: 300000 7.4323 15.2711 22.9970 0.0000 -10722.5616 1453.8357 0.0000 0.0000 1751.4740 -7471.5515 297.1618 -9223.0255 -7436.3340 298.0305 314.9559 381.4301 30302.8220 -57.0366 11.7035
ENERGY: 600000 8.1961 19.8902 23.5970 0.0000 -10700.4211 1443.1524 0.0000 0.0000 1784.1341 -7421.4513 302.7030 -9205.5854 -7440.0519 300.0818 -84.3984 10.9373 30572.0951 -154.7456 -84.0208
ENERGY: 900000 5.8815 19.6105 23.1216 0.0000 -10631.9483 1328.3607 0.0000 0.0000 1718.7835 -7536.1905 291.6154 -9254.9740 -7448.9014 300.8921 -893.5276 -843.3785 30375.0765 -287.4400 -221.4937
ENERGY: 1200000 5.4563 18.2505 24.1298 0.0000 -10609.7488 1380.9364 0.0000 0.0000 1780.0446 -7400.9312 302.0092 -9180.9758 -7446.9744 301.9477 -455.6830 -338.5939 30738.9230 -163.5100 -89.9848
ENERGY: 1500000 2.6972 22.3930 25.3508 0.0000 -10655.1440 1435.0472 0.0000 0.0000 1728.8236 -7440.8322 293.3188 -9169.6558 -7439.4689 300.9451 98.4855 167.8143 30827.2759 -170.0018 -104.4653
TCL: Running FEP window   4: Lambda1 0.8499999999999999 Lambda2 0.7999999999999998 [dLambda -0.050000000000000044]
TCL: Setting parameter firsttimestep to 0
TCL: Setting parameter alchLambda to 0.8499999999999999
Info: NONBONDED TABLE R-SQUARED SPACING: 0.0625
Info: NONBONDED TABLE SIZE: 705 POINTS
TCL: Setting parameter alchLambda2 to 0.7999999999999998
Info: NONBONDED TABLE R-SQUARED SPACING: 0.0625
Info: NONBONDED TABLE SIZE: 705 POINTS
TCL: Running for 1500000 steps
ETITLE: TS BOND ANGLE DIHED IMPRP ELECT VDW BOUNDARY MISC KINETIC TOTAL TEMP POTENTIAL TOTALAVG TEMPAVG PRESSURE GPRESSURE VOLUME PRESSAVG GPRESSAVG
ENERGY: 0 2.6972 22.3930 25.3508 0.0000 -10653.7196 1434.5759 0.0000 0.0000 1727.9590 -7440.7437 293.1721 -9168.7027 -7440.7437 293.1721 75.5155 145.8580 30827.2759 75.5155 145.8580
ENERGY: 300000 1.9978 14.2890 21.2654 0.0000 -10761.5574 1484.9465 0.0000 0.0000 1745.2429 -7493.8158 296.1046 -9239.0587 -7455.1978 296.7653 474.3861 525.8341 30201.7781 100.6137 175.1845
ENERGY: 600000 4.7005 14.6320 24.7593 0.0000 -10756.1567 1461.9588 0.0000 0.0000 1773.4677 -7476.6383 300.8933 -9250.1060 -7466.3929 297.6547 210.0649 250.5539 30511.4021 3.9831 75.9891
ENERGY: 900000 3.7103 17.0648 23.6445 0.0000 -10611.7308 1364.8045 0.0000 0.0000 1774.2206 -7428.2862 301.0210 -9202.5068 -7468.4319 298.1270 -425.0565 -373.1249 30656.2729 -55.8836 7.0387
ENERGY: 1200000 5.5242 16.9250 22.6443 0.0000 -10797.0277 1524.2718 0.0000 0.0000 1704.0573 -7523.6049 289.1169 -9227.6622 -7462.0576 298.0535 570.6093 682.8428 30438.9368 -51.8285 10.3321
ENERGY: 1500000 2.3348 15.4794 24.4821 0.0000 -10740.9405 1483.7452 0.0000 0.0000 1720.1182 -7494.7808 291.8418 -9214.8989 -7456.9110 299.3259 425.8066 494.1172 30460.1829 8.7708 74.0104
TCL: Running FEP window   5: Lambda1 0.7999999999999998 Lambda2 0.7499999999999998 [dLambda -0.050000000000000044]
TCL: Setting parameter firsttimestep to 0
TCL: Setting parameter alchLambda to 0.7999999999999998
Info: NONBONDED TABLE R-SQUARED SPACING: 0.0625
Info: NONBONDED TABLE SIZE: 705 POINTS
TCL: Setting parameter alchLambda2 to 0.7499999999999998
Info: NONBONDED TABLE R-SQUARED SPACING: 0.0625
Info: NONBONDED TABLE SIZE: 705 POINTS
TCL: Running for 1500000 steps
ETITLE: TS BOND ANGLE DIHED IMPRP ELECT VDW BOUNDARY MISC KINETIC TOTAL TEMP POTENTIAL TOTALAVG TEMPAVG PRESSURE GPRESSURE VOLUME PRESSAVG GPRESSAVG
ENERGY: 0 2.3348 15.4794 24.4821 0.0000 -10740.4755 1483.8353 0.0000 0.0000 1719.2564 -7495.0875 291.6956 -9214.3439 -7495.0875 291.6956 398.3274 478.2201 30460.1829 398.3274 478.2201
ENERGY: 300000 3.1296 18.3031 26.7259 0.0000 -10825.5385 1515.3996 0.0000 0.0000 1741.1882 -7520.7921 295.4166 -9261.9803 -7488.7726 295.0267 390.6853 481.2449 30416.6674 196.7692 285.2300
ENERGY: 600000 7.6383 14.8559 20.6232 0.0000 -10612.5152 1421.3789 0.0000 0.0000 1749.7428 -7398.2762 296.8681 -9148.0190 -7452.6206 297.5590 127.1118 200.1998 30206.7375 175.8979 249.4941
ENERGY: 900000 6.9880 16.3946 23.9076 0.0000 -10693.5690 1408.7160 0.0000 0.0000 1713.4192 -7524.1437 290.7052 -9237.5629 -7448.1456 297.0531 -126.2346 -168.6210 30381.6927 135.0581 200.6797
ENERGY: 1200000 3.1470 13.2985 21.5791 0.0000 -10750.7851 1437.5991 0.0000 0.0000 1739.1602 -7536.0013 295.0726 -9275.1615 -7452.4294 297.2847 149.2964 197.0926 30348.3442 176.2189 245.8807
ENERGY: 1500000 2.2703 10.9432 21.9439 0.0000 -10731.0498 1439.2181 0.0000 0.0000 1759.6824 -7496.9918 298.5544 -9256.6743 -7443.5928 298.2882 -119.7463 -27.9605 30730.6388 90.0962 160.8621
TCL: Running FEP window   6: Lambda1 0.7499999999999998 Lambda2 0.6999999999999997 [dLambda -0.050000000000000044]
TCL: Setting parameter firsttimestep to 0
TCL: Setting parameter alchLambda to 0.7499999999999998
Info: NONBONDED TABLE R-SQUARED SPACING: 0.0625
Info: NONBONDED TABLE SIZE: 705 POINTS
TCL: Setting parameter alchLambda2 to 0.6999999999999997
Info: NONBONDED TABLE R-SQUARED SPACING: 0.0625
Info: NONBONDED TABLE SIZE: 705 POINTS
TCL: Running for 1500000 steps
ETITLE: TS BOND ANGLE DIHED IMPRP ELECT VDW BOUNDARY MISC KINETIC TOTAL TEMP POTENTIAL TOTALAVG TEMPAVG PRESSURE GPRESSURE VOLUME PRESSAVG GPRESSAVG
ENERGY: 0 2.2703 10.9432 21.9439 0.0000 -10729.3676 1438.5427 0.0000 0.0000 1758.7972 -7496.8704 298.4042 -9255.6675 -7496.8704 298.4042 -126.3341 -48.4310 30730.6388 -126.3341 -48.4310
ENERGY: 300000 3.4288 14.0400 20.3439 0.0000 -10661.9663 1420.2245 0.0000 0.0000 1721.2834 -7482.6456 292.0395 -9203.9290 -7456.0392 297.0900 -452.4849 -362.8564 31163.8410 -224.5631 -163.2390
ENERGY: 600000 4.7237 16.5284 23.7221 0.0000 -10685.0437 1410.8369 0.0000 0.0000 1798.1600 -7431.0726 305.0827 -9229.2326 -7465.8877 298.8709 87.2424 96.5703 30023.1718 -171.1104 -118.2815
ENERGY: 900000 5.0422 15.8419 21.4637 0.0000 -10812.9008 1443.0741 0.0000 0.0000 1741.5442 -7585.9346 295.4770 -9327.4788 -7469.0677 298.8210 -283.8435 -195.6040 30498.1817 -198.7387 -140.3094
ENERGY: 1200000 5.1966 16.0587 20.7756 0.0000 -10773.4127 1530.7454 0.0000 0.0000 1769.5002 -7431.1362 300.2202 -9200.6365 -7467.0986 298.9307 1131.7287 1193.5387 30402.9433 -177.2455 -114.0946
ENERGY: 1500000 5.1441 12.7965 28.6975 0.0000 -10731.1045 1381.2217 0.0000 0.0000 1745.8911 -7557.3536 296.2146 -9303.2447 -7471.8182 299.0155 -868.2066 -760.1355 30687.5830 -266.8927 -201.2438
TCL: Running FEP window   7: Lambda1 0.6999999999999997 Lambda2 0.6499999999999997 [dLambda -0.050000000000000044]
TCL: Setting parameter firsttimestep to 0
TCL: Setting parameter alchLambda to 0.6999999999999997
Info: NONBONDED TABLE R-SQUARED SPACING: 0.0625
Info: NONBONDED TABLE SIZE: 705 POINTS
TCL: Setting parameter alchLambda2 to 0.6499999999999997
Info: NONBONDED TABLE R-SQUARED SPACING: 0.0625
Info: NONBONDED TABLE SIZE: 705 POINTS
TCL: Running for 1500000 steps
ETITLE: TS BOND ANGLE DIHED IMPRP ELECT VDW BOUNDARY MISC KINETIC TOTAL TEMP POTENTIAL TOTALAVG TEMPAVG PRESSURE GPRESSURE VOLUME PRESSAVG GPRESSAVG
ENERGY: 0 5.1441 12.7965 28.6976 0.0000 -10729.1589 1378.9588 0.0000 0.0000 1745.0171 -7558.5448 296.0663 -9303.5619 -7558.5448 296.0663 -863.6703 -794.9811 30687.5830 -863.6703 -794.9811
ENERGY: 300000 5.9975 14.5689 24.6163 0.0000 -10860.7765 1509.7427 0.0000 0.0000 1730.4387 -7575.4124 293.5928 -9305.8511 -7482.6719 300.0886 920.6248 963.3757 29591.5025 -80.4965 16.8681
ENERGY: 600000 4.0162 22.1429 21.4178 0.0000 -10804.2600 1574.5206 0.0000 0.0000 1833.8364 -7348.3262 311.1357 -9182.1626 -7452.0401 302.4064 1395.9187 1427.9645 30138.1044 170.4792 263.9225
ENERGY: 900000 6.4312 15.9808 22.3200 0.0000 -10775.6233 1457.6868 0.0000 0.0000 1765.3758 -7507.8287 299.5204 -9273.2044 -7449.4960 300.8404 -9.7493 28.3182 30256.5041 131.6885 214.3954
ENERGY: 1200000 2.5405 15.3039 20.7087 0.0000 -10689.0600 1444.3964 0.0000 0.0000 1796.2778 -7409.8327 304.7633 -9206.1105 -7448.6725 300.8295 247.0379 296.3822 30445.9113 221.5826 304.5768
ENERGY: 1500000 5.2786 17.3598 21.4850 0.0000 -10542.6777 1296.2673 0.0000 0.0000 1747.4115 -7454.8755 296.4725 -9202.2870 -7450.7530 300.3016 -1234.2901 -1174.1988 30771.7435 149.6435 226.7453
TCL: Running FEP window   8: Lambda1 0.6499999999999997 Lambda2 0.5999999999999996 [dLambda -0.050000000000000044]
TCL: Setting parameter firsttimestep to 0
TCL: Setting parameter alchLambda to 0.6499999999999997
Info: NONBONDED TABLE R-SQUARED SPACING: 0.0625
Info: NONBONDED TABLE SIZE: 705 POINTS
TCL: Setting parameter alchLambda2 to 0.5999999999999996
Info: NONBONDED TABLE R-SQUARED SPACING: 0.0625
Info: NONBONDED TABLE SIZE: 705 POINTS
TCL: Running for 1500000 steps
ETITLE: TS BOND ANGLE DIHED IMPRP ELECT VDW BOUNDARY MISC KINETIC TOTAL TEMP POTENTIAL TOTALAVG TEMPAVG PRESSURE GPRESSURE VOLUME PRESSAVG GPRESSAVG
ENERGY: 0 5.2786 17.3598 21.4850 0.0000 -10542.1006 1296.8073 0.0000 0.0000 1746.5764 -7454.5935 296.3308 -9201.1700 -7454.5935 296.3308 -1260.6824 -1177.6478 30771.7435 -1260.6824 -1177.6478
ENERGY: 300000 5.0431 18.7924 26.3302 0.0000 -10741.2474 1484.7204 0.0000 0.0000 1806.9147 -7399.4466 306.5681 -9206.3613 -7416.2395 303.7407 505.2677 629.1436 30054.4765 119.5055 208.4908
ENERGY: 600000 2.1385 23.0385 22.9180 0.0000 -10584.0093 1385.0650 0.0000 0.0000 1803.1842 -7347.6651 305.9351 -9150.8493 -7423.2256 303.1145 -23.3193 35.6810 30201.2214 -294.3955 -230.7929
ENERGY: 900000 6.2598 16.8200 22.6023 0.0000 -10587.4998 1353.5993 0.0000 0.0000 1782.2642 -7405.9542 302.3858 -9188.2184 -7427.4571 302.3395 -783.9538 -730.8770 30895.6373 -383.4072 -315.6025
ENERGY: 1200000 1.8233 16.7578 23.3489 0.0000 -10732.3973 1467.1579 0.0000 0.0000 1811.3697 -7411.9396 307.3239 -9223.3093 -7427.8859 303.3284 658.2346 789.5379 29753.1649 -279.6675 -211.1839
ENERGY: 1500000 4.0109 20.2396 23.1247 0.0000 -10770.8528 1428.7324 0.0000 0.0000 1756.7172 -7538.0279 298.0514 -9294.7451 -7428.3348 303.4698 -170.5534 -129.2420 30234.9382 -271.8648 -205.4890
TCL: Running FEP window   9: Lambda1 0.5999999999999996 Lambda2 0.5499999999999996 [dLambda -0.050000000000000044]
TCL: Setting parameter firsttimestep to 0
TCL: Setting parameter alchLambda to 0.5999999999999996
Info: NONBONDED TABLE R-SQUARED SPACING: 0.0625
Info: NONBONDED TABLE SIZE: 705 POINTS
TCL: Setting parameter alchLambda2 to 0.5499999999999996
Info: NONBONDED TABLE R-SQUARED SPACING: 0.0625
Info: NONBONDED TABLE SIZE: 705 POINTS
TCL: Running for 1500000 steps
ETITLE: TS BOND ANGLE DIHED IMPRP ELECT VDW BOUNDARY MISC KINETIC TOTAL TEMP POTENTIAL TOTALAVG TEMPAVG PRESSURE GPRESSURE VOLUME PRESSAVG GPRESSAVG
ENERGY: 0 4.0109 20.2396 23.1247 0.0000 -10770.7342 1429.1612 0.0000 0.0000 1755.8079 -7538.3898 297.8971 -9294.1977 -7538.3898 297.8971 -220.8236 -137.9774 30234.9382 -220.8236 -137.9774
ENERGY: 300000 2.9899 20.9726 21.4777 0.0000 -10680.5268 1433.4050 0.0000 0.0000 1744.7058 -7456.9757 296.0135 -9201.6816 -7457.8682 298.4695 -84.4281 23.3266 30603.5455 -198.7709 -123.6040
ENERGY: 600000 5.3619 13.7641 22.9154 0.0000 -10671.9206 1383.3571 0.0000 0.0000 1739.7441 -7506.7779 295.1716 -9246.5220 -7478.9379 297.5024 -516.2673 -431.5970 30287.6756 -239.0812 -164.2712
ENERGY: 900000 6.0549 16.4422 21.4072 0.0000 -10531.3157 1383.5579 0.0000 0.0000 1761.3449 -7342.5086 298.8365 -9103.8535 -7462.5808 297.5933 -380.0994 -314.2465 30765.3709 -209.8949 -134.5108
ENERGY: 1200000 2.6260 15.0408 22.9265 0.0000 -10579.9330 1362.3658 0.0000 0.0000 1765.4756 -7411.4983 299.5373 -9176.9739 -7462.5950 297.4799 -519.2697 -414.7280 30334.7786 -143.0564 -63.7140
ENERGY: 1500000 4.3025 15.5030 21.8020 0.0000 -10701.9861 1422.2030 0.0000 0.0000 1729.2821 -7508.8935 293.3966 -9238.1756 -7471.6175 297.1498 25.9239 40.1050 30033.7627 -151.9727 -80.0114
TCL: Running FEP window  10: Lambda1 0.5499999999999996 Lambda2 0.4999999999999996 [dLambda -0.04999999999999999]
TCL: Setting parameter firsttimestep to 0
TCL: Setting parameter alchLambda to 0.5499999999999996
Info: NONBONDED TABLE R-SQUARED SPACING: 0.0625
Info: NONBONDED TABLE SIZE: 705 POINTS
TCL: Setting parameter alchLambda2 to 0.4999999999999996
Info: NONBONDED TABLE R-SQUARED SPACING: 0.0625
Info: NONBONDED TABLE SIZE: 705 POINTS
TCL: Running for 1500000 steps
ETITLE: TS BOND ANGLE DIHED IMPRP ELECT VDW BOUNDARY MISC KINETIC TOTAL TEMP POTENTIAL TOTALAVG TEMPAVG PRESSURE GPRESSURE VOLUME PRESSAVG GPRESSAVG
ENERGY: 0 4.3025 15.5030 21.8020 0.0000 -10701.0242 1421.8734 0.0000 0.0000 1728.4018 -7509.1414 293.2473 -9237.5433 -7509.1414 293.2473 -62.9444 26.3583 30033.7627 -62.9444 26.3583
ENERGY: 300000 5.8978 16.0648 22.7726 0.0000 -10676.7335 1424.6854 0.0000 0.0000 1766.9457 -7440.3672 299.7868 -9207.3129 -7449.6958 296.4318 -222.2355 -125.8216 30474.6432 92.2221 163.6956
ENERGY: 600000 4.0312 12.4881 23.1430 0.0000 -10722.2449 1501.8769 0.0000 0.0000 1791.8397 -7388.8660 304.0104 -9180.7057 -7452.4265 296.5527 741.0852 795.5607 30341.6706 237.5506 310.6006
ENERGY: 900000 2.9236 18.5295 22.9598 0.0000 -10885.8019 1546.6892 0.0000 0.0000 1757.7252 -7536.9747 298.2224 -9294.6998 -7458.5100 296.9204 588.8566 703.1561 30169.2400 165.6380 249.4218
ENERGY: 1200000 2.7606 15.8860 24.4632 0.0000 -10691.0642 1487.9561 0.0000 0.0000 1757.8184 -7402.1798 298.2382 -9159.9982 -7451.6228 296.7996 412.4152 539.9814 30597.0150 160.1467 245.3643
ENERGY: 1500000 4.5949 17.8638 25.3327 0.0000 -10675.4515 1389.1712 0.0000 0.0000 1772.0919 -7466.3970 300.6599 -9238.4889 -7443.7200 297.8781 -403.7278 -339.5280 30436.9858 45.8759 125.4839
TCL: Running FEP window  11: Lambda1 0.4999999999999996 Lambda2 0.4499999999999996 [dLambda -0.04999999999999999]
TCL: Setting parameter firsttimestep to 0
TCL: Setting parameter alchLambda to 0.4999999999999996
Info: NONBONDED TABLE R-SQUARED SPACING: 0.0625
Info: NONBONDED TABLE SIZE: 705 POINTS
TCL: Setting parameter alchLambda2 to 0.4499999999999996
Info: NONBONDED TABLE R-SQUARED SPACING: 0.0625
Info: NONBONDED TABLE SIZE: 705 POINTS
TCL: Running for 1500000 steps
ETITLE: TS BOND ANGLE DIHED IMPRP ELECT VDW BOUNDARY MISC KINETIC TOTAL TEMP POTENTIAL TOTALAVG TEMPAVG PRESSURE GPRESSURE VOLUME PRESSAVG GPRESSAVG
ENERGY: 0 4.5949 17.8638 25.3327 0.0000 -10675.5815 1389.5667 0.0000 0.0000 1771.2309 -7466.9924 300.5138 -9238.2233 -7466.9924 300.5138 -430.6231 -344.4796 30436.9858 -430.6231 -344.4796
ENERGY: 300000 2.9826 12.5004 23.9157 0.0000 -10768.5658 1426.6788 0.0000 0.0000 1793.7979 -7508.6904 304.3426 -9302.4884 -7451.8817 301.3990 -101.6293 -22.8349 30018.7438 194.7475 247.9079
ENERGY: 600000 5.1361 17.9656 24.6362 0.0000 -10584.5994 1380.6277 0.0000 0.0000 1786.9819 -7369.2520 303.1862 -9156.2339 -7444.7589 299.9528 -61.3885 -16.4593 30250.3302 83.8872 137.3206
ENERGY: 900000 6.2265 21.8615 24.5738 0.0000 -10798.6432 1519.5556 0.0000 0.0000 1798.1148 -7428.3110 305.0750 -9226.4258 -7460.7846 298.6039 883.8122 916.3267 30195.6548 157.5012 204.9557
ENERGY: 1200000 5.0777 15.9527 20.8554 0.0000 -10799.2431 1527.7370 0.0000 0.0000 1761.3774 -7468.2428 298.8420 -9229.6203 -7454.0010 299.0456 592.5435 642.8740 30371.6477 129.5156 169.8647
ENERGY: 1500000 3.5856 13.8971 23.0371 0.0000 -10687.0975 1443.0121 0.0000 0.0000 1767.5620 -7436.0036 299.8913 -9203.5656 -7444.9263 299.5180 -184.4792 -67.2962 30641.2350 109.1992 158.2700
TCL: Running FEP window  12: Lambda1 0.4499999999999996 Lambda2 0.39999999999999963 [dLambda -0.04999999999999999]
TCL: Setting parameter firsttimestep to 0
TCL: Setting parameter alchLambda to 0.4499999999999996
Info: NONBONDED TABLE R-SQUARED SPACING: 0.0625
Info: NONBONDED TABLE SIZE: 705 POINTS
TCL: Setting parameter alchLambda2 to 0.39999999999999963
Info: NONBONDED TABLE R-SQUARED SPACING: 0.0625
Info: NONBONDED TABLE SIZE: 705 POINTS
TCL: Running for 1500000 steps
ETITLE: TS BOND ANGLE DIHED IMPRP ELECT VDW BOUNDARY MISC KINETIC TOTAL TEMP POTENTIAL TOTALAVG TEMPAVG PRESSURE GPRESSURE VOLUME PRESSAVG GPRESSAVG
ENERGY: 0 3.5856 13.8971 23.0371 0.0000 -10687.0971 1443.5112 0.0000 0.0000 1766.7055 -7436.3606 299.7460 -9203.0661 -7436.3606 299.7460 -143.2412 -73.9792 30641.2350 -143.2412 -73.9792
ENERGY: 300000 3.3264 25.5852 22.7382 0.0000 -10696.4979 1439.4166 0.0000 0.0000 1755.3713 -7450.0601 297.8230 -9205.4314 -7495.6068 299.6500 266.7752 258.5224 30174.7585 -58.2479 -21.3080
ENERGY: 600000 5.1904 14.1055 22.9536 0.0000 -10658.4789 1423.4608 0.0000 0.0000 1706.2009 -7486.5677 289.4806 -9192.7686 -7475.3734 299.2163 -63.0587 1.8213 30380.6360 133.4720 165.6443
ENERGY: 900000 5.4194 19.5935 21.4966 0.0000 -10526.9103 1372.4928 0.0000 0.0000 1808.6688 -7299.2393 306.8657 -9107.9081 -7453.5132 300.0048 -301.3853 -236.5997 30709.5948 28.8240 73.5789
ENERGY: 1200000 5.6808 12.7115 22.6509 0.0000 -10778.3948 1530.8425 0.0000 0.0000 1793.3361 -7413.1730 304.2643 -9206.5091 -7450.6827 300.3387 787.3397 825.2910 30360.5642 67.0624 118.7097
ENERGY: 1500000 5.2499 22.6884 22.0170 0.0000 -10767.8805 1426.7447 0.0000 0.0000 1807.1305 -7484.0501 306.6047 -9291.1805 -7445.6503 300.9818 -391.7671 -336.3530 30542.2809 -14.0495 38.9519
TCL: Running FEP window  13: Lambda1 0.39999999999999963 Lambda2 0.34999999999999964 [dLambda -0.04999999999999999]
TCL: Setting parameter firsttimestep to 0
TCL: Setting parameter alchLambda to 0.39999999999999963
Info: NONBONDED TABLE R-SQUARED SPACING: 0.0625
Info: NONBONDED TABLE SIZE: 705 POINTS
TCL: Setting parameter alchLambda2 to 0.34999999999999964
Info: NONBONDED TABLE R-SQUARED SPACING: 0.0625
Info: NONBONDED TABLE SIZE: 705 POINTS
TCL: Running for 1500000 steps
ETITLE: TS BOND ANGLE DIHED IMPRP ELECT VDW BOUNDARY MISC KINETIC TOTAL TEMP POTENTIAL TOTALAVG TEMPAVG PRESSURE GPRESSURE VOLUME PRESSAVG GPRESSAVG
ENERGY: 0 5.2499 22.6884 22.0170 0.0000 -10767.8797 1427.0280 0.0000 0.0000 1806.2456 -7484.6509 306.4545 -9290.8965 -7484.6509 306.4545 -437.3724 -345.8844 30542.2809 -437.3724 -345.8844
ENERGY: 300000 3.6615 20.0047 21.8753 0.0000 -10728.6576 1477.8592 0.0000 0.0000 1758.9838 -7446.2731 298.4359 -9205.2569 -7474.4387 298.8260 594.2318 668.8409 30131.6249 399.7140 462.8688
ENERGY: 600000 3.1919 25.1252 20.8997 0.0000 -10559.0556 1340.6495 0.0000 0.0000 1798.0510 -7371.1383 305.0642 -9169.1893 -7437.0242 299.1628 -882.0679 -722.6740 30717.3726 179.0843 241.3905
ENERGY: 900000 7.6681 16.3382 24.9050 0.0000 -10778.2062 1470.7729 0.0000 0.0000 1761.8791 -7496.6429 298.9271 -9258.5220 -7448.5187 299.0426 168.1461 227.8648 29945.8448 112.9992 179.9922
ENERGY: 1200000 5.6054 20.4913 22.0558 0.0000 -10731.9552 1462.3460 0.0000 0.0000 1721.0752 -7500.3816 292.0042 -9221.4567 -7453.9044 298.4498 96.2719 96.2345 30382.0460 116.7219 177.5987
ENERGY: 1500000 5.2279 12.9252 22.8642 0.0000 -10537.7440 1356.2846 0.0000 0.0000 1749.3716 -7391.0704 296.8051 -9140.4420 -7442.1880 298.2595 -733.5110 -705.9045 31048.7219 21.6635 82.3112
TCL: Running FEP window  14: Lambda1 0.34999999999999964 Lambda2 0.29999999999999966 [dLambda -0.04999999999999999]
TCL: Setting parameter firsttimestep to 0
TCL: Setting parameter alchLambda to 0.34999999999999964
Info: NONBONDED TABLE R-SQUARED SPACING: 0.0625
Info: NONBONDED TABLE SIZE: 705 POINTS
TCL: Setting parameter alchLambda2 to 0.29999999999999966
Info: NONBONDED TABLE R-SQUARED SPACING: 0.0625
Info: NONBONDED TABLE SIZE: 705 POINTS
TCL: Running for 1500000 steps
ETITLE: TS BOND ANGLE DIHED IMPRP ELECT VDW BOUNDARY MISC KINETIC TOTAL TEMP POTENTIAL TOTALAVG TEMPAVG PRESSURE GPRESSURE VOLUME PRESSAVG GPRESSAVG
ENERGY: 0 5.2279 12.9252 22.8642 0.0000 -10537.7437 1356.9069 0.0000 0.0000 1748.5168 -7391.3027 296.6600 -9139.8194 -7391.3027 296.6600 -789.6795 -707.2479 31048.7219 -789.6795 -707.2479
ENERGY: 300000 7.2755 18.2330 19.6658 0.0000 -10806.3413 1501.6893 0.0000 0.0000 1821.0214 -7438.4563 308.9615 -9259.4778 -7431.0881 303.1372 402.0289 498.8076 30056.0756 128.9516 227.3113
ENERGY: 600000 3.6938 12.3507 22.7292 0.0000 -10666.8902 1413.4511 0.0000 0.0000 1822.3593 -7392.3062 309.1884 -9214.6655 -7431.1106 301.7019 -39.0332 75.9423 30213.3975 135.3455 230.2799
ENERGY: 900000 3.8720 15.5632 24.3221 0.0000 -10741.3681 1458.0298 0.0000 0.0000 1767.7330 -7471.8479 299.9203 -9239.5809 -7431.1393 302.3829 -162.6765 -32.6040 30625.0519 92.1290 181.3977
ENERGY: 1200000 6.2871 13.6525 20.8623 0.0000 -10753.1455 1481.2858 0.0000 0.0000 1834.5812 -7396.4766 311.2621 -9231.0579 -7420.1651 303.3331 356.1340 383.3305 30029.5740 92.0872 169.8001
ENERGY: 1500000 4.6389 20.1009 20.8731 0.0000 -10829.1845 1467.9284 0.0000 0.0000 1763.9977 -7551.6456 299.2866 -9315.6433 -7429.1135 302.1417 -153.0227 -54.4114 30119.0507 80.6620 157.2317
TCL: Running FEP window  15: Lambda1 0.29999999999999966 Lambda2 0.24999999999999967 [dLambda -0.04999999999999999]
TCL: Setting parameter firsttimestep to 0
TCL: Setting parameter alchLambda to 0.29999999999999966
Info: NONBONDED TABLE R-SQUARED SPACING: 0.0625
Info: NONBONDED TABLE SIZE: 705 POINTS
TCL: Setting parameter alchLambda2 to 0.24999999999999967
Info: NONBONDED TABLE R-SQUARED SPACING: 0.0625
Info: NONBONDED TABLE SIZE: 705 POINTS
TCL: Running for 1500000 steps
ETITLE: TS BOND ANGLE DIHED IMPRP ELECT VDW BOUNDARY MISC KINETIC TOTAL TEMP POTENTIAL TOTALAVG TEMPAVG PRESSURE GPRESSURE VOLUME PRESSAVG GPRESSAVG
ENERGY: 0 4.6389 20.1009 20.8731 0.0000 -10829.1860 1468.0508 0.0000 0.0000 1763.1461 -7552.3762 299.1421 -9315.5223 -7552.3762 299.1421 -171.0820 -63.6268 30119.0507 -171.0820 -63.6268
ENERGY: 300000 2.8564 17.6832 21.4584 0.0000 -10746.9115 1451.7242 0.0000 0.0000 1772.9063 -7480.2829 300.7981 -9253.1893 -7471.6751 301.3958 1.2869 68.0577 30402.7420 -57.0518 2.6535
ENERGY: 600000 4.9810 14.4416 21.2820 0.0000 -10700.5962 1427.4532 0.0000 0.0000 1783.2109 -7449.2275 302.5464 -9232.4384 -7455.6269 302.4791 -96.2724 -81.6923 30280.6337 -55.5212 1.7064
ENERGY: 900000 3.6726 14.7258 20.9688 0.0000 -10669.9826 1412.1816 0.0000 0.0000 1733.6658 -7484.7680 294.1404 -9218.4338 -7460.9211 300.0570 -211.6390 -136.1847 30443.4589 -23.8621 37.8700
ENERGY: 1200000 9.2887 16.3745 26.7382 0.0000 -10785.7614 1452.0026 0.0000 0.0000 1823.9471 -7457.4102 309.4578 -9281.3573 -7455.2189 300.9467 -346.9582 -223.8846 30138.5093 -117.1685 -57.9711
ENERGY: 1500000 5.8177 25.4798 23.5100 0.0000 -10645.4511 1364.1417 0.0000 0.0000 1742.1754 -7484.3264 295.5841 -9226.5018 -7456.7656 300.6023 -686.8200 -671.6654 30180.2018 -119.1516 -60.1059
TCL: Running FEP window  16: Lambda1 0.24999999999999967 Lambda2 0.19999999999999968 [dLambda -0.04999999999999999]
TCL: Setting parameter firsttimestep to 0
TCL: Setting parameter alchLambda to 0.24999999999999967
Info: NONBONDED TABLE R-SQUARED SPACING: 0.0625
Info: NONBONDED TABLE SIZE: 705 POINTS
TCL: Setting parameter alchLambda2 to 0.19999999999999968
Info: NONBONDED TABLE R-SQUARED SPACING: 0.0625
Info: NONBONDED TABLE SIZE: 705 POINTS
TCL: Running for 1500000 steps
ETITLE: TS BOND ANGLE DIHED IMPRP ELECT VDW BOUNDARY MISC KINETIC TOTAL TEMP POTENTIAL TOTALAVG TEMPAVG PRESSURE GPRESSURE VOLUME PRESSAVG GPRESSAVG
ENERGY: 0 5.8177 25.4798 23.5100 0.0000 -10645.4526 1364.3229 0.0000 0.0000 1741.3028 -7485.0193 295.4361 -9226.3221 -7485.0193 295.4361 -762.8492 -677.1275 30180.2018 -762.8492 -677.1275
ENERGY: 300000 7.6991 19.6822 21.9895 0.0000 -10665.5465 1425.2585 0.0000 0.0000 1737.3378 -7453.5794 294.7634 -9190.9172 -7426.7006 303.0892 -98.8854 -54.1516 30187.4363 -102.8360 -41.9996
ENERGY: 600000 3.1987 15.6139 25.0191 0.0000 -10736.0959 1454.4506 0.0000 0.0000 1813.4358 -7424.3779 307.6744 -9237.8137 -7451.9739 299.6739 397.3657 485.6594 29769.3643 -188.6774 -127.4346
ENERGY: 900000 4.1766 12.4976 22.3334 0.0000 -10656.0193 1421.7357 0.0000 0.0000 1785.7736 -7409.5023 302.9812 -9195.2760 -7441.5340 299.2712 63.8741 127.8062 30374.8934 -200.1091 -139.6585
ENERGY: 1200000 3.1943 14.8114 24.9273 0.0000 -10664.7437 1454.6308 0.0000 0.0000 1810.8028 -7356.3771 307.2277 -9167.1799 -7442.5648 299.9086 283.6684 370.6923 30213.0894 -117.4603 -49.0666
ENERGY: 1500000 5.8293 12.8108 21.8600 0.0000 -10788.9078 1455.0377 0.0000 0.0000 1733.3853 -7559.9846 294.0928 -9293.3699 -7457.0949 298.3536 -90.1054 33.4088 29775.6711 -129.9041 -59.7594
TCL: Running FEP window  17: Lambda1 0.19999999999999968 Lambda2 0.1499999999999997 [dLambda -0.04999999999999999]
TCL: Setting parameter firsttimestep to 0
TCL: Setting parameter alchLambda to 0.19999999999999968
Info: NONBONDED TABLE R-SQUARED SPACING: 0.0625
Info: NONBONDED TABLE SIZE: 705 POINTS
TCL: Setting parameter alchLambda2 to 0.1499999999999997
Info: NONBONDED TABLE R-SQUARED SPACING: 0.0625
Info: NONBONDED TABLE SIZE: 705 POINTS
TCL: Running for 1500000 steps
ETITLE: TS BOND ANGLE DIHED IMPRP ELECT VDW BOUNDARY MISC KINETIC TOTAL TEMP POTENTIAL TOTALAVG TEMPAVG PRESSURE GPRESSURE VOLUME PRESSAVG GPRESSAVG
ENERGY: 0 5.8293 12.8108 21.8600 0.0000 -10788.9059 1454.9363 0.0000 0.0000 1732.4813 -7560.9882 293.9394 -9293.4694 -7560.9882 293.9394 -54.8255 25.3855 29775.6711 -54.8255 25.3855
ENERGY: 300000 3.9642 14.8196 24.1953 0.0000 -10815.7801 1484.9292 0.0000 0.0000 1724.1091 -7563.7627 292.5189 -9287.8718 -7444.5341 300.3045 84.4643 156.5156 30188.8488 136.3004 202.5008
ENERGY: 600000 5.5595 19.9296 24.4116 0.0000 -10553.2570 1334.0612 0.0000 0.0000 1793.8621 -7375.4330 304.3535 -9169.2952 -7437.4435 300.6808 -854.2281 -806.1462 30519.3377 11.6861 83.9998
ENERGY: 900000 1.8064 16.9078 24.6571 0.0000 -10667.0937 1380.3073 0.0000 0.0000 1747.4216 -7495.9935 296.4742 -9243.4151 -7439.9405 300.7341 -295.1674 -310.5956 30012.1433 -40.0737 24.4055
ENERGY: 1200000 6.6214 13.2699 20.9536 0.0000 -10649.0045 1387.0233 0.0000 0.0000 1763.5750 -7457.5613 299.2149 -9221.1363 -7447.2035 299.8821 -795.4046 -689.8478 30635.3971 -105.9564 -37.0847
ENERGY: 1500000 4.6735 15.2297 22.6483 0.0000 -10548.9835 1400.6973 0.0000 0.0000 1789.7341 -7316.0006 303.6531 -9105.7347 -7447.4373 299.8016 -172.2020 -82.4311 30870.2569 -146.9134 -73.6113
TCL: Running FEP window  18: Lambda1 0.1499999999999997 Lambda2 0.09999999999999969 [dLambda -0.05 ]
TCL: Setting parameter firsttimestep to 0
TCL: Setting parameter alchLambda to 0.1499999999999997
Info: NONBONDED TABLE R-SQUARED SPACING: 0.0625
Info: NONBONDED TABLE SIZE: 705 POINTS
TCL: Setting parameter alchLambda2 to 0.09999999999999969
Info: NONBONDED TABLE R-SQUARED SPACING: 0.0625
Info: NONBONDED TABLE SIZE: 705 POINTS
TCL: Running for 1500000 steps
ETITLE: TS BOND ANGLE DIHED IMPRP ELECT VDW BOUNDARY MISC KINETIC TOTAL TEMP POTENTIAL TOTALAVG TEMPAVG PRESSURE GPRESSURE VOLUME PRESSAVG GPRESSAVG
ENERGY: 0 4.6735 15.2297 22.6483 0.0000 -10548.9832 1400.3605 0.0000 0.0000 1788.8217 -7317.2496 303.4983 -9106.0712 -7317.2496 303.4983 -176.1603 -90.8317 30870.2569 -176.1603 -90.8317
ENERGY: 300000 2.7957 17.5665 20.4079 0.0000 -10669.9798 1462.4583 0.0000 0.0000 1788.2220 -7378.5294 303.3966 -9166.7514 -7397.8979 302.3780 529.3038 627.9690 29882.7504 78.5843 147.1677
ENERGY: 600000 7.9384 14.4667 24.9035 0.0000 -10591.4416 1380.4661 0.0000 0.0000 1756.4508 -7407.2160 298.0062 -9163.6669 -7399.1554 301.9492 -381.0155 -307.5211 30283.8645 44.0244 113.4890
ENERGY: 900000 2.5305 14.6536 24.4894 0.0000 -10742.3323 1415.6373 0.0000 0.0000 1762.8689 -7522.1525 299.0951 -9285.0214 -7419.6572 301.6053 -237.9366 -116.8785 30126.1474 38.7594 108.8989
ENERGY: 1200000 3.0992 16.8923 22.4634 0.0000 -10709.1263 1446.8011 0.0000 0.0000 1793.0373 -7426.8329 304.2136 -9219.8702 -7428.7258 301.9775 291.0676 384.0264 29933.1812 91.2956 161.8937
ENERGY: 1500000 2.9841 14.9640 22.3107 0.0000 -10912.4831 1541.1827 0.0000 0.0000 1797.0509 -7533.9907 304.8945 -9331.0416 -7436.6794 300.7403 636.5756 710.6896 29943.1851 59.3139 129.6261
TCL: Running FEP window  19: Lambda1 0.09999999999999969 Lambda2 0.049999999999999684 [dLambda -0.05 ]
TCL: Setting parameter firsttimestep to 0
TCL: Setting parameter alchLambda to 0.09999999999999969
Info: NONBONDED TABLE R-SQUARED SPACING: 0.0625
Info: NONBONDED TABLE SIZE: 705 POINTS
TCL: Setting parameter alchLambda2 to 0.049999999999999684
Info: NONBONDED TABLE R-SQUARED SPACING: 0.0625
Info: NONBONDED TABLE SIZE: 705 POINTS
TCL: Running for 1500000 steps
ETITLE: TS BOND ANGLE DIHED IMPRP ELECT VDW BOUNDARY MISC KINETIC TOTAL TEMP POTENTIAL TOTALAVG TEMPAVG PRESSURE GPRESSURE VOLUME PRESSAVG GPRESSAVG
ENERGY: 0 2.9841 14.9639 22.3107 0.0000 -10912.4834 1541.5533 0.0000 0.0000 1796.1673 -7534.5040 304.7446 -9330.6713 -7534.5040 304.7446 612.3057 703.9460 29943.1851 612.3057 703.9460
ENERGY: 300000 6.3572 23.2530 22.3221 0.0000 -10528.6634 1342.5937 0.0000 0.0000 1820.5042 -7313.6332 308.8737 -9134.1374 -7453.4319 300.8103 -636.8668 -655.5325 30387.8470 -397.3292 -317.5543
ENERGY: 600000 4.3414 19.0909 22.8594 0.0000 -10747.5561 1457.4869 0.0000 0.0000 1747.0822 -7496.6953 296.4166 -9243.7775 -7457.4275 301.5036 -216.1771 -176.7851 30578.6823 -304.6290 -238.2938
ENERGY: 900000 6.3375 15.8517 23.7096 0.0000 -10703.4477 1482.4451 0.0000 0.0000 1760.9680 -7414.1357 298.7726 -9175.1037 -7450.9535 300.0331 389.1863 461.5088 30090.5074 -151.7496 -83.3584
ENERGY: 1200000 4.3805 20.5318 23.4185 0.0000 -10642.4203 1383.4183 0.0000 0.0000 1760.8843 -7449.7869 298.7584 -9210.6712 -7459.3238 299.0659 -624.3114 -522.7399 30391.2914 -226.5845 -152.8026
ENERGY: 1500000 4.6016 16.9034 25.8508 0.0000 -10701.7982 1443.4801 0.0000 0.0000 1737.8785 -7473.0838 294.8551 -9210.9622 -7453.4084 299.8230 -140.5998 -74.3312 30476.8069 -202.7710 -130.0913
TCL: Running FEP window  20: Lambda1 0.049999999999999684 Lambda2 0.0    [dLambda -0.049999999999999684]
TCL: Setting parameter firsttimestep to 0
TCL: Setting parameter alchLambda to 0.049999999999999684
Info: NONBONDED TABLE R-SQUARED SPACING: 0.0625
Info: NONBONDED TABLE SIZE: 705 POINTS
TCL: Setting parameter alchLambda2 to 0.0
Info: NONBONDED TABLE R-SQUARED SPACING: 0.0625
Info: NONBONDED TABLE SIZE: 705 POINTS
TCL: Running for 1500000 steps
ETITLE: TS BOND ANGLE DIHED IMPRP ELECT VDW BOUNDARY MISC KINETIC TOTAL TEMP POTENTIAL TOTALAVG TEMPAVG PRESSURE GPRESSURE VOLUME PRESSAVG GPRESSAVG
ENERGY: 0 4.6016 16.9034 25.8508 0.0000 -10701.7982 1441.0000 0.0000 0.0000 1737.0097 -7476.4327 294.7077 -9213.4423 -7476.4327 294.7077 -178.7106 -86.5785 30476.8069 -178.7106 -86.5785
ENERGY: 300000 4.2454 13.6508 21.3897 0.0000 -10686.4782 1448.2705 0.0000 0.0000 1771.5185 -7427.4033 300.5626 -9198.9218 -7416.5482 299.6134 393.5749 520.5035 29757.0330 97.5303 175.5551
ENERGY: 600000 4.8137 18.3641 24.8278 0.0000 -10724.8125 1498.9884 0.0000 0.0000 1779.5123 -7398.3062 301.9189 -9177.8185 -7435.7410 299.7584 502.5432 608.8266 30139.3119 176.3072 260.2613
ENERGY: 900000 3.1423 13.4532 23.8005 0.0000 -10707.6107 1473.5182 0.0000 0.0000 1782.4543 -7411.2422 302.4180 -9193.6966 -7428.4050 299.8922 796.1515 895.2873 29458.4948 207.6398 278.4403
ENERGY: 1200000 2.8577 20.2798 26.4913 0.0000 -10648.3697 1346.2578 0.0000 0.0000 1825.0340 -7427.4490 309.6422 -9252.4831 -7434.4069 300.7472 -640.2363 -586.8738 29737.2816 88.2237 148.8900
ENERGY: 1500000 8.5126 21.1765 24.4199 0.0000 -10659.2835 1452.5320 0.0000 0.0000 1758.3015 -7394.3411 298.3202 -9152.6426 -7436.3705 300.3958 152.5958 182.4224 30296.2012 35.9833 92.7530
TCL: Exiting due to exit command.
