Info: SIMULATION PARAMETERS:
Info: TIMESTEP               2
Info: NUMBER OF STEPS        0
Info: STEPS PER CYCLE        10
Info: PERIODIC CELL BASIS 1  28.9391 0 0
Info: PERIODIC CELL BASIS 2  0 33.1902 0
Info: PERIODIC CELL BASIS 3  0 0 31.3698
Info: PERIODIC CELL CENTER   0 0 0
Info: WRAPPING WATERS AROUND PERIODIC BOUNDARIES ON OUTPUT.
Info: WRAPPING ALL CLUSTERS AROUND PERIODIC BOUNDARIES ON OUTPUT.
Info: FIRST LDB TIMESTEP     50
Info: LAST LDB TIMESTEP     -1
Info: HOM BACKGROUND SCALING 1
Info: PME BACKGROUND SCALING 1
Info: MIN ATOMS PER PATCH    40
Info: EMPTY PATCH LOAD       40 ATOMS
Info: VELOCITY FILE          mobley_9460824_equil.vel
Info: CENTER OF MASS MOVING INITIALLY? NO
Info: DIELECTRIC             1
Info: EXCLUDE                SCALED ONE-FOUR
Info: 1-4 ELECTROSTATICS SCALED BY 0.833333
Info: MODIFIED 1-4 VDW PARAMETERS WILL BE USED
Info: DCD FILENAME           mobley_9460824_prod.dcd
Info: DCD FREQUENCY          100000
Info: DCD FIRST STEP         100000
Info: DCD FILE WILL CONTAIN UNIT CELL DATA
Info: XST FILENAME           mobley_9460824_prod.xst
Info: XST FREQUENCY          100000
Info: NO VELOCITY DCD OUTPUT
Info: NO FORCE DCD OUTPUT
Info: OUTPUT FILENAME        mobley_9460824_prod
Info: BINARY OUTPUT FILES WILL BE USED
Info: RESTART FILENAME       mobley_9460824_prod.restart
Info: RESTART FREQUENCY      100000
Info: BINARY RESTART FILES WILL BE USED
Info: CUTOFF                 9
Info: PAIRLIST DISTANCE      11
Info: PAIRLIST SHRINK RATE   0.01
Info: PAIRLIST GROW RATE     0.01
Info: PAIRLIST TRIGGER       0.3
Info: PAIRLISTS PER CYCLE    2
Info: PAIRLISTS ENABLED
Info: MARGIN                 2
Info: HYDROGEN GROUP CUTOFF  2.5
Info: PATCH DIMENSION        15.5
Info: ENERGY OUTPUT STEPS    100000
Info: ENERGY EVALUATION STEPS    100000
Info: OUTPUT ENERGY PRECISION 4
Info: CROSSTERM ENERGY INCLUDED IN DIHEDRAL
Info: TIMING OUTPUT STEPS    1000000
Info: PRESSURE OUTPUT STEPS  100000
Info: ALCHEMICAL FEP ON
Info: FEP CURRENT LAMBDA VALUE     1
Info: FEP COMPARISON LAMBDA VALUE  0.95
Info: FEP INTRA-ALCHEMICAL NON-BONDED INTERACTIONS WILL BE RETAINED
Info: FEP INTRA-ALCHEMICAL BONDED INTERACTIONS WILL BE RETAINED
Info: FEP VDW SHIFTING COEFFICIENT 5
Info: FEP ELEC. ACTIVE FOR ANNIHILATED PARTICLES BETWEEN LAMBDA = 0 AND LAMBDA = 0.5
Info: FEP ELEC. ACTIVE FOR EXNIHILATED PARTICLES BETWEEN LAMBDA = 0.5 AND LAMBDA = 1
Info: FEP VDW ACTIVE FOR ANNIHILATED PARTICLES BETWEEN LAMBDA = 0 AND LAMBDA = 1
Info: FEP VDW ACTIVE FOR EXNIHILATED PARTICLES BETWEEN LAMBDA = 0 AND LAMBDA = 1
Info: FEP BOND ACTIVE FOR ANNIHILATED PARTICLES BETWEEN LAMBDA = 1 AND LAMBDA = 1
Info: FEP BOND ACTIVE FOR EXNIHILATED PARTICLES BETWEEN LAMBDA = 0 AND LAMBDA = 0
Info: LANGEVIN DYNAMICS ACTIVE
Info: LANGEVIN TEMPERATURE   300
Info: LANGEVIN USING BBK INTEGRATOR
Info: LANGEVIN DAMPING COEFFICIENT IS 1 INVERSE PS
Info: LANGEVIN DYNAMICS APPLIED TO HYDROGENS
Info: LANGEVIN PISTON PRESSURE CONTROL ACTIVE
Info:        TARGET PRESSURE IS 1.01325 BAR
Info:     OSCILLATION PERIOD IS 50 FS
Info:             DECAY TIME IS 25 FS
Info:     PISTON TEMPERATURE IS 300 K
Info:       PRESSURE CONTROL IS GROUP-BASED
Info:    INITIAL STRAIN RATE IS -0.000256261 -0.000256261 -0.000256261
Info:       CELL FLUCTUATION IS ISOTROPIC
Info: PARTICLE MESH EWALD (PME) ACTIVE
Info: PME TOLERANCE               1e-06
Info: PME EWALD COEFFICIENT       0.348832
Info: PME INTERPOLATION ORDER     4
Info: PME GRID DIMENSIONS         32 36 32
Info: PME MAXIMUM GRID SPACING    1
Info: PME CALCULATION WILL BE PERFORMED ON GPU
Info: FULL ELECTROSTATIC EVALUATION FREQUENCY      2
Info: USING VERLET I (r-RESPA) MTS SCHEME.
Info: C1 SPLITTING OF LONG RANGE ELECTROSTATICS
Info: PLACING ATOMS IN PATCHES BY HYDROGEN GROUPS
Info: RIGID BONDS TO HYDROGEN : ALL
Info:         ERROR TOLERANCE : 1e-08
Info:          MAX ITERATIONS : 100
Info: RIGID WATER USING SETTLE ALGORITHM
Info: RANDOM NUMBER SEED     1744095170
Info: USE HYDROGEN BONDS?    NO
Info: Using AMBER format force field!
Info: AMBER PARM FILE        mobley_9460824.prmtop
Info: COORDINATE PDB         mobley_9460824.pdb
Info: Exclusions will be read from PARM file!
Info: SCNB (VDW SCALING)     2
Info: USING ARITHMETIC MEAN TO COMBINE L-J SIGMA PARAMETERS
Info: BINARY COORDINATES     mobley_9460824_equil.coor
Info: SUMMARY OF PARAMETERS:
Info: 11 BONDS
Info: 18 ANGLES
Info:   18 HARMONIC
Info:   0 COSINE-BASED
Info: 10 DIHEDRAL
Info: 0 IMPROPER
Info: 0 CROSSTERM
Info: 0 VDW
Info: 45 VDW_PAIRS
Info: 0 NBTHOLE_PAIRS
Info: To read alchdata from file: mobley_9460824.pdb
Info: To read alchflag data from column: 5
Info: STRUCTURE SUMMARY:
Info: 2913 ATOMS
Info: 2912 BONDS
Info: 52 ANGLES
Info: 61 DIHEDRALS
Info: 0 IMPROPERS
Info: 0 CROSSTERMS
Info: 3015 EXCLUSIONS
Info: 2900 RIGID BONDS
Info: ALCH: 0 ATOMS TO DISAPPEAR IN FINAL STATE
Info: ALCH: 30 ATOMS TO APPEAR IN FINAL STATE
Info: 5839 DEGREES OF FREEDOM
Info: 974 HYDROGEN GROUPS
Info: 4 ATOMS IN LARGEST HYDROGEN GROUP
Info: 974 MIGRATION GROUPS
Info: 4 ATOMS IN LARGEST MIGRATION GROUP
Info: TOTAL MASS = 17573.7 amu
Info: TOTAL CHARGE = 0.000200013 e
Info: MASS DENSITY = 0.968538 g/cm^3
Info: ATOM DENSITY = 0.0966794 atoms/A^3
Info: ADDED 0 IMPLICIT EXCLUSIONS
Info: NONBONDED TABLE R-SQUARED SPACING: 0.0625
Info: NONBONDED TABLE SIZE: 705 POINTS
Info: REMOVING COM VELOCITY 0.0762114 0.0927115 0.302059
Info: Use 3D box decompostion in PME FFT.
Info: Updated CUDA force table with 4096 elements.
Info: Updated CUDA LJ table with 9 x 9 elements.
Info: Found 31 unique exclusion lists needing 112 bytes
TCL: Running for 1500000 steps
ETITLE: TS BOND ANGLE DIHED IMPRP ELECT VDW BOUNDARY MISC KINETIC TOTAL TEMP POTENTIAL TOTALAVG TEMPAVG PRESSURE GPRESSURE VOLUME PRESSAVG GPRESSAVG
ENERGY: 0 6.6501 15.3716 20.8354 0.0000 -10604.7511 1451.3050 0.0000 0.0000 1750.7932 -7359.7958 301.7774 -9110.5890 -7359.7958 301.7774 548.1935 625.0067 30130.5171 548.1935 625.0067
ENERGY: 300000 1.9108 13.6564 27.4419 0.0000 -10528.2345 1424.7092 0.0000 0.0000 1709.3380 -7351.1782 294.6320 -9060.5162 -7359.3256 300.2515 253.7163 269.6480 30126.7281 197.1385 254.1510
ENERGY: 600000 3.2369 12.4520 25.1319 0.0000 -10447.4986 1314.1389 0.0000 0.0000 1690.1932 -7402.3457 291.3321 -9092.5390 -7366.5629 300.1109 -573.0331 -520.0283 30083.2577 45.9822 110.4484
ENERGY: 900000 2.2843 16.0501 22.6383 0.0000 -10572.2538 1390.0194 0.0000 0.0000 1744.4863 -7396.7754 300.6903 -9141.2617 -7362.7560 299.8887 -248.6377 -241.3796 29983.0855 92.2893 153.5074
ENERGY: 1200000 4.7381 13.8747 24.4205 0.0000 -10690.8496 1445.6177 0.0000 0.0000 1692.7343 -7509.4643 291.7700 -9202.1986 -7374.8633 299.8041 561.0302 563.6468 29230.9471 89.3334 138.1618
ENERGY: 1500000 4.0979 16.9765 22.3945 0.0000 -10651.6774 1455.7827 0.0000 0.0000 1683.0711 -7469.3547 290.1044 -9152.4258 -7377.7326 299.8565 405.7700 445.9735 29972.0423 172.6310 217.6667
TCL: Running FEP window   2: Lambda1 0.95   Lambda2 0.8999999999999999 [dLambda -0.050000000000000044]
TCL: Setting parameter firsttimestep to 0
TCL: Setting parameter alchLambda to 0.95
Info: NONBONDED TABLE R-SQUARED SPACING: 0.0625
Info: NONBONDED TABLE SIZE: 705 POINTS
TCL: Setting parameter alchLambda2 to 0.8999999999999999
Info: NONBONDED TABLE R-SQUARED SPACING: 0.0625
Info: NONBONDED TABLE SIZE: 705 POINTS
TCL: Running for 1500000 steps
ETITLE: TS BOND ANGLE DIHED IMPRP ELECT VDW BOUNDARY MISC KINETIC TOTAL TEMP POTENTIAL TOTALAVG TEMPAVG PRESSURE GPRESSURE VOLUME PRESSAVG GPRESSAVG
ENERGY: 0 4.0979 16.9765 22.3945 0.0000 -10649.2381 1454.8239 0.0000 0.0000 1682.1846 -7468.7607 289.9516 -9150.9453 -7468.7607 289.9516 321.1092 408.9649 29972.0423 321.1092 408.9649
ENERGY: 300000 4.0951 13.0528 21.7404 0.0000 -10693.5686 1457.3774 0.0000 0.0000 1752.0308 -7445.2722 301.9908 -9197.3030 -7411.4570 299.9608 235.1763 332.9751 30016.3769 356.7692 433.9557
ENERGY: 600000 3.2156 14.3980 21.2135 0.0000 -10626.6053 1432.8275 0.0000 0.0000 1738.2902 -7416.6605 299.6223 -9154.9507 -7430.0883 298.3419 630.3773 595.6304 29630.3424 259.6290 309.5029
ENERGY: 900000 2.9052 16.7438 23.3808 0.0000 -10487.1770 1445.1391 0.0000 0.0000 1736.9481 -7262.0601 299.3910 -8999.0082 -7411.8767 298.1186 737.0250 761.4279 30364.8398 247.9382 292.0544
ENERGY: 1200000 6.8322 13.8182 23.0172 0.0000 -10429.8437 1337.1184 0.0000 0.0000 1751.8677 -7297.1900 301.9626 -9049.0578 -7391.7460 299.5151 -688.0112 -602.5120 30558.0277 21.7632 72.9012
ENERGY: 1500000 3.3261 18.9593 24.1262 0.0000 -10559.0782 1324.8108 0.0000 0.0000 1691.4222 -7496.4336 291.5439 -9187.8559 -7396.8011 298.6366 -1099.6299 -1026.5234 30386.3370 -140.4169 -87.4536
TCL: Running FEP window   3: Lambda1 0.8999999999999999 Lambda2 0.8499999999999999 [dLambda -0.050000000000000044]
TCL: Setting parameter firsttimestep to 0
TCL: Setting parameter alchLambda to 0.8999999999999999
Info: NONBONDED TABLE R-SQUARED SPACING: 0.0625
Info: NONBONDED TABLE SIZE: 705 POINTS
TCL: Setting parameter alchLambda2 to 0.8499999999999999
Info: NONBONDED TABLE R-SQUARED SPACING: 0.0625
Info: NONBONDED TABLE SIZE: 705 POINTS
TCL: Running for 1500000 steps
ETITLE: TS BOND ANGLE DIHED IMPRP ELECT VDW BOUNDARY MISC KINETIC TOTAL TEMP POTENTIAL TOTALAVG TEMPAVG PRESSURE GPRESSURE VOLUME PRESSAVG GPRESSAVG
ENERGY: 0 3.3261 18.9593 24.1262 0.0000 -10557.1801 1325.3053 0.0000 0.0000 1690.5860 -7494.8773 291.3998 -9185.4633 -7494.8773 291.3998 -1133.2671 -1038.5273 30386.3370 -1133.2671 -1038.5273
ENERGY: 300000 2.3419 11.4704 25.1619 0.0000 -10585.1441 1414.7778 0.0000 0.0000 1692.1274 -7439.2647 291.6654 -9131.3921 -7385.8425 297.5633 -136.5803 -34.9723 30054.0613 -393.5180 -308.6780
ENERGY: 600000 4.3897 15.4149 25.1649 0.0000 -10536.0509 1364.4398 0.0000 0.0000 1745.0865 -7381.5551 300.7938 -9126.6416 -7371.5713 299.1020 -283.0334 -221.0243 29491.4407 -328.9428 -259.8321
ENERGY: 900000 5.0747 13.3917 25.5555 0.0000 -10575.5412 1427.6975 0.0000 0.0000 1741.4463 -7362.3754 300.1663 -9103.8217 -7364.1166 298.9009 261.1855 363.4354 29945.6628 -202.6417 -127.5747
ENERGY: 1200000 6.9475 14.7547 21.5197 0.0000 -10470.8122 1392.0438 0.0000 0.0000 1735.7739 -7299.7726 299.1886 -9035.5465 -7358.0552 299.2296 -84.9504 -14.0371 30179.8594 -133.9930 -66.0215
ENERGY: 1500000 1.8470 13.5219 23.0489 0.0000 -10396.3815 1254.7283 0.0000 0.0000 1738.9043 -7364.3312 299.7282 -9103.2355 -7360.8805 299.3296 -1214.6597 -1138.5734 30404.6674 -238.9524 -167.9906
TCL: Running FEP window   4: Lambda1 0.8499999999999999 Lambda2 0.7999999999999998 [dLambda -0.050000000000000044]
TCL: Setting parameter firsttimestep to 0
TCL: Setting parameter alchLambda to 0.8499999999999999
Info: NONBONDED TABLE R-SQUARED SPACING: 0.0625
Info: NONBONDED TABLE SIZE: 705 POINTS
TCL: Setting parameter alchLambda2 to 0.7999999999999998
Info: NONBONDED TABLE R-SQUARED SPACING: 0.0625
Info: NONBONDED TABLE SIZE: 705 POINTS
TCL: Running for 1500000 steps
ETITLE: TS BOND ANGLE DIHED IMPRP ELECT VDW BOUNDARY MISC KINETIC TOTAL TEMP POTENTIAL TOTALAVG TEMPAVG PRESSURE GPRESSURE VOLUME PRESSAVG GPRESSAVG
ENERGY: 0 1.8470 13.5219 23.0489 0.0000 -10394.8244 1254.4668 0.0000 0.0000 1738.0746 -7363.8652 299.5852 -9101.9398 -7363.8652 299.5852 -1228.7057 -1160.6056 30404.6674 -1228.7057 -1160.6056
ENERGY: 300000 2.8606 18.8843 22.5153 0.0000 -10515.0761 1357.0378 0.0000 0.0000 1731.5601 -7382.2180 298.4623 -9113.7780 -7407.3158 295.3168 -485.0872 -376.8290 29951.2209 -646.2614 -586.2586
ENERGY: 600000 7.9912 11.7686 24.0715 0.0000 -10508.5785 1366.4159 0.0000 0.0000 1760.2083 -7338.1229 303.4003 -9098.3312 -7385.0664 297.1587 -135.7064 -135.4165 29887.6825 -286.0108 -231.4176
ENERGY: 900000 2.3355 17.6869 25.3388 0.0000 -10494.4527 1350.2320 0.0000 0.0000 1769.7639 -7329.0956 305.0473 -9098.8595 -7370.5235 298.8842 -575.5722 -516.2113 30504.1372 -269.9944 -208.6848
ENERGY: 1200000 2.2999 15.0770 24.1842 0.0000 -10501.9511 1354.2437 0.0000 0.0000 1739.3744 -7366.7719 299.8092 -9106.1463 -7359.8739 298.4735 -594.6432 -479.3596 30283.4296 -259.0169 -193.2444
ENERGY: 1500000 2.4980 16.7606 22.3813 0.0000 -10553.6667 1396.8273 0.0000 0.0000 1756.8223 -7358.3772 302.8166 -9115.1995 -7350.5005 299.0530 -175.4739 -164.8551 30125.0598 -269.1163 -200.3656
TCL: Running FEP window   5: Lambda1 0.7999999999999998 Lambda2 0.7499999999999998 [dLambda -0.050000000000000044]
TCL: Setting parameter firsttimestep to 0
TCL: Setting parameter alchLambda to 0.7999999999999998
Info: NONBONDED TABLE R-SQUARED SPACING: 0.0625
Info: NONBONDED TABLE SIZE: 705 POINTS
TCL: Setting parameter alchLambda2 to 0.7499999999999998
Info: NONBONDED TABLE R-SQUARED SPACING: 0.0625
Info: NONBONDED TABLE SIZE: 705 POINTS
TCL: Running for 1500000 steps
ETITLE: TS BOND ANGLE DIHED IMPRP ELECT VDW BOUNDARY MISC KINETIC TOTAL TEMP POTENTIAL TOTALAVG TEMPAVG PRESSURE GPRESSURE VOLUME PRESSAVG GPRESSAVG
ENERGY: 0 2.4980 16.7606 22.3813 0.0000 -10552.3486 1397.1075 0.0000 0.0000 1755.9968 -7357.6044 302.6744 -9113.6012 -7357.6044 302.6744 -257.8239 -177.7629 30125.0598 -257.8239 -177.7629
ENERGY: 300000 5.7760 16.4428 23.4382 0.0000 -10612.6093 1472.7277 0.0000 0.0000 1745.4391 -7348.7855 300.8546 -9094.2246 -7347.7017 298.2903 542.8299 626.8452 29756.3473 214.4050 285.3614
ENERGY: 600000 4.8209 12.9588 24.3632 0.0000 -10600.5849 1379.3325 0.0000 0.0000 1759.4866 -7419.6228 303.2759 -9179.1094 -7358.5722 299.9627 -326.9276 -278.1941 29575.5862 295.2134 349.8679
ENERGY: 900000 3.1605 25.8023 19.0031 0.0000 -10494.1769 1352.3372 0.0000 0.0000 1702.6638 -7391.2101 293.4816 -9093.8739 -7361.1845 300.4032 -791.9632 -669.5726 30409.9675 113.4738 178.0517
ENERGY: 1200000 4.9740 12.1333 21.5658 0.0000 -10552.8075 1357.6660 0.0000 0.0000 1710.6646 -7445.8038 294.8606 -9156.4684 -7368.5213 300.2429 -674.5531 -606.1480 30203.8851 -19.9950 48.0204
ENERGY: 1500000 3.8588 18.8186 22.1287 0.0000 -10691.4645 1496.0703 0.0000 0.0000 1679.3508 -7471.2373 289.4632 -9150.5881 -7377.8607 298.7926 757.6409 806.3228 29821.8077 5.4859 70.8493
TCL: Running FEP window   6: Lambda1 0.7499999999999998 Lambda2 0.6999999999999997 [dLambda -0.050000000000000044]
TCL: Setting parameter firsttimestep to 0
TCL: Setting parameter alchLambda to 0.7499999999999998
Info: NONBONDED TABLE R-SQUARED SPACING: 0.0625
Info: NONBONDED TABLE SIZE: 705 POINTS
TCL: Setting parameter alchLambda2 to 0.6999999999999997
Info: NONBONDED TABLE R-SQUARED SPACING: 0.0625
Info: NONBONDED TABLE SIZE: 705 POINTS
TCL: Running for 1500000 steps
ETITLE: TS BOND ANGLE DIHED IMPRP ELECT VDW BOUNDARY MISC KINETIC TOTAL TEMP POTENTIAL TOTALAVG TEMPAVG PRESSURE GPRESSURE VOLUME PRESSAVG GPRESSAVG
ENERGY: 0 3.8588 18.8186 22.1287 0.0000 -10689.8298 1496.3242 0.0000 0.0000 1678.4824 -7470.2172 289.3135 -9148.6996 -7470.2172 289.3135 705.8954 792.9684 29821.8077 705.8954 792.9684
ENERGY: 300000 1.2857 12.9926 23.0313 0.0000 -10475.4752 1356.9482 0.0000 0.0000 1731.6149 -7349.6025 298.4717 -9081.2174 -7391.3782 299.4735 -381.1815 -316.8305 30126.2057 248.2392 308.1028
ENERGY: 600000 2.4180 13.2437 25.7811 0.0000 -10356.4929 1342.2604 0.0000 0.0000 1768.5326 -7204.2571 304.8351 -8972.7897 -7349.5501 299.0488 -182.8229 -113.4884 30296.9559 84.2577 145.5645
ENERGY: 900000 1.4813 14.1525 19.7451 0.0000 -10545.2075 1342.0349 0.0000 0.0000 1766.2423 -7401.5515 304.4403 -9167.7937 -7359.2335 301.1929 -387.9819 -330.2162 29800.6067 32.5391 88.9333
ENERGY: 1200000 2.9581 11.9970 24.7066 0.0000 -10554.0050 1424.1378 0.0000 0.0000 1725.8718 -7364.3337 297.4818 -9090.2055 -7362.4211 300.3016 -173.6581 -115.6629 30439.9870 15.4581 76.8349
ENERGY: 1500000 3.8448 10.2164 24.5017 0.0000 -10714.3203 1501.6865 0.0000 0.0000 1728.4044 -7445.6664 297.9184 -9174.0708 -7366.9727 299.4141 595.0725 659.5378 29646.1915 122.2689 183.8030
TCL: Running FEP window   7: Lambda1 0.6999999999999997 Lambda2 0.6499999999999997 [dLambda -0.050000000000000044]
TCL: Setting parameter firsttimestep to 0
TCL: Setting parameter alchLambda to 0.6999999999999997
Info: NONBONDED TABLE R-SQUARED SPACING: 0.0625
Info: NONBONDED TABLE SIZE: 705 POINTS
TCL: Setting parameter alchLambda2 to 0.6499999999999997
Info: NONBONDED TABLE R-SQUARED SPACING: 0.0625
Info: NONBONDED TABLE SIZE: 705 POINTS
TCL: Running for 1500000 steps
ETITLE: TS BOND ANGLE DIHED IMPRP ELECT VDW BOUNDARY MISC KINETIC TOTAL TEMP POTENTIAL TOTALAVG TEMPAVG PRESSURE GPRESSURE VOLUME PRESSAVG GPRESSAVG
ENERGY: 0 3.8448 10.2164 24.5017 0.0000 -10713.3167 1501.6242 0.0000 0.0000 1727.5132 -7445.6164 297.7648 -9173.1296 -7445.6164 297.7648 558.5650 642.8060 29646.1915 558.5650 642.8060
ENERGY: 300000 4.4947 16.9704 22.7637 0.0000 -10476.0843 1337.4461 0.0000 0.0000 1736.9430 -7357.4664 299.3901 -9094.4094 -7430.6723 295.7504 -984.8811 -886.4172 30461.0002 -163.9549 -91.7319
ENERGY: 600000 3.8773 13.1581 23.4447 0.0000 -10446.1930 1304.9361 0.0000 0.0000 1736.3897 -7364.3872 299.2948 -9100.7768 -7386.0888 296.7093 -815.2761 -695.8745 29793.0933 -140.9700 -74.9892
ENERGY: 900000 3.2988 16.5906 24.3856 0.0000 -10551.3538 1402.8293 0.0000 0.0000 1701.9291 -7402.3204 293.3549 -9104.2495 -7367.3388 298.6126 -284.6967 -264.2471 30175.3200 -73.1877 -12.7320
ENERGY: 1200000 5.4893 19.6441 25.5604 0.0000 -10448.8551 1283.6137 0.0000 0.0000 1773.5316 -7341.0159 305.6968 -9114.5475 -7361.7624 299.3702 -980.1149 -923.9747 29920.8145 -86.5545 -29.0280
ENERGY: 1500000 4.3751 19.6990 20.7645 0.0000 -10478.4677 1369.0057 0.0000 0.0000 1683.8918 -7380.7316 290.2459 -9064.6234 -7366.2327 298.0948 -273.5956 -237.5347 29955.9964 -150.0428 -88.7206
TCL: Running FEP window   8: Lambda1 0.6499999999999997 Lambda2 0.5999999999999996 [dLambda -0.050000000000000044]
TCL: Setting parameter firsttimestep to 0
TCL: Setting parameter alchLambda to 0.6499999999999997
Info: NONBONDED TABLE R-SQUARED SPACING: 0.0625
Info: NONBONDED TABLE SIZE: 705 POINTS
TCL: Setting parameter alchLambda2 to 0.5999999999999996
Info: NONBONDED TABLE R-SQUARED SPACING: 0.0625
Info: NONBONDED TABLE SIZE: 705 POINTS
TCL: Running for 1500000 steps
ETITLE: TS BOND ANGLE DIHED IMPRP ELECT VDW BOUNDARY MISC KINETIC TOTAL TEMP POTENTIAL TOTALAVG TEMPAVG PRESSURE GPRESSURE VOLUME PRESSAVG GPRESSAVG
ENERGY: 0 4.3751 19.6990 20.7645 0.0000 -10476.5775 1369.2818 0.0000 0.0000 1683.0222 -7379.4349 290.0960 -9062.4571 -7379.4349 290.0960 -316.1453 -246.5568 29955.9964 -316.1453 -246.5568
ENERGY: 300000 4.9752 14.3006 21.4247 0.0000 -10635.6580 1483.3781 0.0000 0.0000 1761.7925 -7349.7869 303.6733 -9111.5794 -7332.7981 302.2104 974.7099 1024.7944 29506.5688 -57.4848 22.3708
ENERGY: 600000 4.7054 15.7534 25.4429 0.0000 -10617.8032 1446.6659 0.0000 0.0000 1806.6254 -7318.6103 311.4010 -9125.2356 -7329.9381 305.8520 364.1122 444.7064 29601.3270 -31.8911 47.3069
ENERGY: 900000 5.6192 17.0085 20.4391 0.0000 -10569.0283 1464.8569 0.0000 0.0000 1747.9379 -7313.1667 301.2853 -9061.1046 -7336.5153 305.4380 628.1830 685.1864 29767.9096 107.1062 175.8010
ENERGY: 1200000 3.5978 14.6113 29.7998 0.0000 -10623.5567 1428.3929 0.0000 0.0000 1762.6237 -7384.5312 303.8166 -9147.1550 -7343.4053 304.5119 52.1875 145.4778 29874.1585 -3.7246 66.7664
ENERGY: 1500000 3.2749 13.8168 22.3106 0.0000 -10509.9532 1330.0674 0.0000 0.0000 1760.9124 -7379.5711 303.5216 -9140.4835 -7341.7268 304.2807 -1061.7555 -924.9269 30354.2791 -63.3847 4.6901
TCL: Running FEP window   9: Lambda1 0.5999999999999996 Lambda2 0.5499999999999996 [dLambda -0.050000000000000044]
TCL: Setting parameter firsttimestep to 0
TCL: Setting parameter alchLambda to 0.5999999999999996
Info: NONBONDED TABLE R-SQUARED SPACING: 0.0625
Info: NONBONDED TABLE SIZE: 705 POINTS
TCL: Setting parameter alchLambda2 to 0.5499999999999996
Info: NONBONDED TABLE R-SQUARED SPACING: 0.0625
Info: NONBONDED TABLE SIZE: 705 POINTS
TCL: Running for 1500000 steps
ETITLE: TS BOND ANGLE DIHED IMPRP ELECT VDW BOUNDARY MISC KINETIC TOTAL TEMP POTENTIAL TOTALAVG TEMPAVG PRESSURE GPRESSURE VOLUME PRESSAVG GPRESSAVG
ENERGY: 0 3.2749 13.8168 22.3106 0.0000 -10509.8246 1330.0892 0.0000 0.0000 1760.0092 -7380.3239 303.3660 -9140.3331 -7380.3239 303.3660 -1038.9276 -939.1028 30354.2791 -1038.9276 -939.1028
ENERGY: 300000 4.1621 11.5771 25.6103 0.0000 -10474.3675 1386.7951 0.0000 0.0000 1744.5221 -7301.7009 300.6965 -9046.2230 -7347.2413 300.5813 145.4468 185.9777 29685.2054 -410.4429 -323.3287
ENERGY: 600000 0.9791 12.3054 22.8638 0.0000 -10564.9462 1401.3845 0.0000 0.0000 1706.5375 -7420.8759 294.1493 -9127.4134 -7373.4135 297.0203 -114.2214 -23.8623 29915.7528 -220.0599 -141.5638
ENERGY: 900000 3.8825 15.3247 22.7678 0.0000 -10391.2075 1331.6356 0.0000 0.0000 1783.9438 -7233.6531 307.4915 -9017.5968 -7355.6591 298.5477 -511.2266 -491.8991 30310.2743 -251.7271 -181.6705
ENERGY: 1200000 3.3015 17.7662 23.5068 0.0000 -10646.5866 1468.3003 0.0000 0.0000 1712.9679 -7420.7438 295.2576 -9133.7117 -7354.6925 298.2272 266.2191 329.4995 29942.4064 -163.3142 -94.3991
ENERGY: 1500000 2.6544 22.3397 22.5172 0.0000 -10510.8224 1382.6349 0.0000 0.0000 1736.4420 -7344.2342 299.3038 -9080.6762 -7363.3522 297.9792 245.4586 274.4881 29467.5808 -134.9452 -72.5700
TCL: Running FEP window  10: Lambda1 0.5499999999999996 Lambda2 0.4999999999999996 [dLambda -0.04999999999999999]
TCL: Setting parameter firsttimestep to 0
TCL: Setting parameter alchLambda to 0.5499999999999996
Info: NONBONDED TABLE R-SQUARED SPACING: 0.0625
Info: NONBONDED TABLE SIZE: 705 POINTS
TCL: Setting parameter alchLambda2 to 0.4999999999999996
Info: NONBONDED TABLE R-SQUARED SPACING: 0.0625
Info: NONBONDED TABLE SIZE: 705 POINTS
TCL: Running for 1500000 steps
ETITLE: TS BOND ANGLE DIHED IMPRP ELECT VDW BOUNDARY MISC KINETIC TOTAL TEMP POTENTIAL TOTALAVG TEMPAVG PRESSURE GPRESSURE VOLUME PRESSAVG GPRESSAVG
ENERGY: 0 2.6544 22.3397 22.5172 0.0000 -10510.4748 1383.4840 0.0000 0.0000 1735.5642 -7343.9154 299.1525 -9079.4796 -7343.9154 299.1525 197.2673 272.3444 29467.5808 197.2673 272.3444
ENERGY: 300000 3.5415 10.9561 25.7909 0.0000 -10527.2868 1331.5490 0.0000 0.0000 1789.5104 -7365.9389 308.4510 -9155.4493 -7365.2984 300.8726 -756.6231 -727.2377 29944.7496 -77.2725 -5.2285
ENERGY: 600000 3.1065 19.2225 21.9169 0.0000 -10498.3333 1393.3399 0.0000 0.0000 1743.6612 -7317.0863 300.5481 -9060.7475 -7326.1640 301.0806 -43.6279 14.1095 29901.9096 -129.2931 -66.2784
ENERGY: 900000 3.9354 14.2532 23.8576 0.0000 -10578.6012 1433.1405 0.0000 0.0000 1769.6599 -7333.7547 305.0294 -9103.4146 -7342.1298 300.5578 98.1612 193.5782 29807.6785 -69.6924 -7.2958
ENERGY: 1200000 3.7859 14.7048 28.4486 0.0000 -10431.8865 1323.8930 0.0000 0.0000 1670.6380 -7390.4163 287.9614 -9061.0543 -7353.2244 299.2388 -742.6104 -611.6656 30435.8681 -83.5802 -18.7499
ENERGY: 1500000 3.6526 18.7956 26.2448 0.0000 -10605.9458 1357.3136 0.0000 0.0000 1700.5698 -7499.3695 293.1206 -9199.9392 -7350.0394 299.4417 -697.1572 -657.2049 29972.8367 -81.9434 -14.9723
TCL: Running FEP window  11: Lambda1 0.4999999999999996 Lambda2 0.4499999999999996 [dLambda -0.04999999999999999]
TCL: Setting parameter firsttimestep to 0
TCL: Setting parameter alchLambda to 0.4999999999999996
Info: NONBONDED TABLE R-SQUARED SPACING: 0.0625
Info: NONBONDED TABLE SIZE: 705 POINTS
TCL: Setting parameter alchLambda2 to 0.4499999999999996
Info: NONBONDED TABLE R-SQUARED SPACING: 0.0625
Info: NONBONDED TABLE SIZE: 705 POINTS
TCL: Running for 1500000 steps
ETITLE: TS BOND ANGLE DIHED IMPRP ELECT VDW BOUNDARY MISC KINETIC TOTAL TEMP POTENTIAL TOTALAVG TEMPAVG PRESSURE GPRESSURE VOLUME PRESSAVG GPRESSAVG
ENERGY: 0 3.6526 18.7956 26.2448 0.0000 -10606.5095 1357.7697 0.0000 0.0000 1699.7108 -7500.3360 292.9726 -9200.0468 -7500.3360 292.9726 -756.6419 -665.6729 29972.8367 -756.6419 -665.6729
ENERGY: 300000 3.8472 17.5566 22.0210 0.0000 -10520.2241 1422.9212 0.0000 0.0000 1755.8478 -7298.0302 302.6487 -9053.8780 -7370.8882 300.5080 102.3547 174.1426 30150.1173 -232.8407 -175.8528
ENERGY: 600000 6.9289 15.6286 22.6408 0.0000 -10408.2736 1282.5228 0.0000 0.0000 1749.3392 -7331.2134 301.5268 -9080.5525 -7378.4605 299.6739 -1330.1780 -1254.3005 30573.7139 -336.4666 -269.9426
ENERGY: 900000 7.1365 16.3103 25.3734 0.0000 -10581.9774 1508.0247 0.0000 0.0000 1742.2149 -7282.9175 300.2988 -9025.1325 -7352.0138 299.5323 1131.7575 1198.3637 29896.4708 -166.4037 -107.5174
ENERGY: 1200000 3.7759 18.2777 26.3535 0.0000 -10576.1568 1378.3645 0.0000 0.0000 1728.8213 -7420.5639 297.9902 -9149.3852 -7359.0044 298.7974 -177.0448 -134.9802 29555.7181 -196.9410 -131.4141
ENERGY: 1500000 3.6445 14.5576 23.8325 0.0000 -10612.0743 1458.8890 0.0000 0.0000 1733.2463 -7377.9044 298.7529 -9111.1507 -7365.9191 298.8309 726.9861 755.0861 29826.7810 -18.9474 42.5350
TCL: Running FEP window  12: Lambda1 0.4499999999999996 Lambda2 0.39999999999999963 [dLambda -0.04999999999999999]
TCL: Setting parameter firsttimestep to 0
TCL: Setting parameter alchLambda to 0.4499999999999996
Info: NONBONDED TABLE R-SQUARED SPACING: 0.0625
Info: NONBONDED TABLE SIZE: 705 POINTS
TCL: Setting parameter alchLambda2 to 0.39999999999999963
Info: NONBONDED TABLE R-SQUARED SPACING: 0.0625
Info: NONBONDED TABLE SIZE: 705 POINTS
TCL: Running for 1500000 steps
ETITLE: TS BOND ANGLE DIHED IMPRP ELECT VDW BOUNDARY MISC KINETIC TOTAL TEMP POTENTIAL TOTALAVG TEMPAVG PRESSURE GPRESSURE VOLUME PRESSAVG GPRESSAVG
ENERGY: 0 3.6445 14.5576 23.8325 0.0000 -10612.0746 1458.9378 0.0000 0.0000 1732.3896 -7378.7127 298.6053 -9111.1023 -7378.7127 298.6053 668.3286 744.1316 29826.7810 668.3286 744.1316
ENERGY: 300000 2.3869 11.6840 24.0010 0.0000 -10453.9449 1327.6505 0.0000 0.0000 1724.2504 -7363.9720 297.2024 -9088.2224 -7372.2755 299.1224 -747.3490 -657.8139 29924.9824 -54.8091 37.9793
ENERGY: 600000 2.7006 16.0531 25.9350 0.0000 -10578.3729 1393.4049 0.0000 0.0000 1730.1774 -7410.1020 298.2240 -9140.2794 -7384.7571 298.6853 -413.5796 -369.8973 29988.4792 -83.9821 -14.4880
ENERGY: 900000 5.3751 13.7567 23.6770 0.0000 -10635.5580 1488.8572 0.0000 0.0000 1752.6953 -7351.1966 302.1053 -9103.8919 -7359.2166 301.0957 875.0400 941.8971 29769.7702 75.0937 140.2433
ENERGY: 1200000 4.9317 13.3343 19.7915 0.0000 -10475.3757 1438.2643 0.0000 0.0000 1720.5086 -7278.5452 296.5574 -8999.0538 -7347.9457 301.0842 324.4942 450.3171 30335.8488 35.1852 103.7549
ENERGY: 1500000 3.1134 7.6345 25.4577 0.0000 -10578.6306 1422.8535 0.0000 0.0000 1784.6157 -7334.9558 307.6073 -9119.5715 -7338.3402 301.8731 44.8920 132.6107 30093.1366 44.2188 118.8394
TCL: Running FEP window  13: Lambda1 0.39999999999999963 Lambda2 0.34999999999999964 [dLambda -0.04999999999999999]
TCL: Setting parameter firsttimestep to 0
TCL: Setting parameter alchLambda to 0.39999999999999963
Info: NONBONDED TABLE R-SQUARED SPACING: 0.0625
Info: NONBONDED TABLE SIZE: 705 POINTS
TCL: Setting parameter alchLambda2 to 0.34999999999999964
Info: NONBONDED TABLE R-SQUARED SPACING: 0.0625
Info: NONBONDED TABLE SIZE: 705 POINTS
TCL: Running for 1500000 steps
ETITLE: TS BOND ANGLE DIHED IMPRP ELECT VDW BOUNDARY MISC KINETIC TOTAL TEMP POTENTIAL TOTALAVG TEMPAVG PRESSURE GPRESSURE VOLUME PRESSAVG GPRESSAVG
ENERGY: 0 3.1134 7.6345 25.4577 0.0000 -10578.6291 1423.1559 0.0000 0.0000 1783.7126 -7335.5550 307.4516 -9119.2675 -7335.5550 307.4516 43.2811 126.5774 30093.1366 43.2811 126.5774
ENERGY: 300000 4.1404 14.6051 23.0361 0.0000 -10588.1486 1433.4366 0.0000 0.0000 1736.0776 -7376.8528 299.2410 -9112.9304 -7373.7900 301.0642 222.6622 252.2125 29715.0780 136.3763 201.8210
ENERGY: 600000 3.1862 11.8209 23.4287 0.0000 -10655.0141 1524.4364 0.0000 0.0000 1748.7078 -7343.4341 301.4180 -9092.1419 -7337.5206 304.0196 931.7714 1097.1062 29547.2652 350.6715 433.4464
ENERGY: 900000 5.3574 14.2659 25.8004 0.0000 -10504.5198 1389.6898 0.0000 0.0000 1741.9868 -7327.4194 300.2595 -9069.4062 -7349.5838 303.2562 -335.9178 -278.3967 30239.6837 194.7428 280.3278
ENERGY: 1200000 3.5966 19.7692 21.7932 0.0000 -10646.7298 1484.0836 0.0000 0.0000 1770.6453 -7346.8419 305.1993 -9117.4872 -7347.6396 302.9244 520.2439 639.8827 29644.6635 190.7038 277.0184
ENERGY: 1500000 4.6559 14.9818 23.6133 0.0000 -10419.4756 1392.4875 0.0000 0.0000 1798.3969 -7185.3402 309.9827 -8983.7371 -7338.5712 303.0367 87.4821 185.9827 30167.2920 211.1133 292.0747
TCL: Running FEP window  14: Lambda1 0.34999999999999964 Lambda2 0.29999999999999966 [dLambda -0.04999999999999999]
TCL: Setting parameter firsttimestep to 0
TCL: Setting parameter alchLambda to 0.34999999999999964
Info: NONBONDED TABLE R-SQUARED SPACING: 0.0625
Info: NONBONDED TABLE SIZE: 705 POINTS
TCL: Setting parameter alchLambda2 to 0.29999999999999966
Info: NONBONDED TABLE R-SQUARED SPACING: 0.0625
Info: NONBONDED TABLE SIZE: 705 POINTS
TCL: Running for 1500000 steps
ETITLE: TS BOND ANGLE DIHED IMPRP ELECT VDW BOUNDARY MISC KINETIC TOTAL TEMP POTENTIAL TOTALAVG TEMPAVG PRESSURE GPRESSURE VOLUME PRESSAVG GPRESSAVG
ENERGY: 0 4.6559 14.9818 23.6133 0.0000 -10419.4768 1392.8277 0.0000 0.0000 1797.5213 -7185.8768 309.8318 -8983.3982 -7185.8768 309.8318 101.9377 177.5924 30167.2920 101.9377 177.5924
ENERGY: 300000 5.0537 14.0127 21.6223 0.0000 -10423.9893 1349.4920 0.0000 0.0000 1736.2436 -7297.5649 299.2696 -9033.8085 -7270.1009 306.3667 -553.4783 -442.5688 30272.1579 -113.5380 -14.8938
ENERGY: 600000 3.2519 23.4738 22.0056 0.0000 -10470.7619 1383.2218 0.0000 0.0000 1706.6047 -7332.2042 294.1608 -9038.8089 -7305.3425 301.9330 -202.4401 -123.6144 29928.9532 -314.6395 -236.4644
ENERGY: 900000 4.4342 15.8201 20.2319 0.0000 -10477.7283 1408.5992 0.0000 0.0000 1757.5430 -7271.0999 302.9409 -9028.6429 -7319.3058 300.9487 172.9052 230.6750 29921.8539 -209.9928 -147.6396
ENERGY: 1200000 3.4084 15.0221 28.8182 0.0000 -10495.0159 1358.7660 0.0000 0.0000 1723.2427 -7365.7585 297.0287 -9089.0012 -7316.7148 301.4986 -560.6448 -547.5283 30076.1611 -240.0922 -184.8414
ENERGY: 1500000 6.3962 16.4374 24.7064 0.0000 -10556.1385 1422.1023 0.0000 0.0000 1735.9065 -7350.5896 299.2115 -9086.4961 -7326.9172 301.0454 142.1616 265.4834 29946.6706 -197.0286 -133.6284
TCL: Running FEP window  15: Lambda1 0.29999999999999966 Lambda2 0.24999999999999967 [dLambda -0.04999999999999999]
TCL: Setting parameter firsttimestep to 0
TCL: Setting parameter alchLambda to 0.29999999999999966
Info: NONBONDED TABLE R-SQUARED SPACING: 0.0625
Info: NONBONDED TABLE SIZE: 705 POINTS
TCL: Setting parameter alchLambda2 to 0.24999999999999967
Info: NONBONDED TABLE R-SQUARED SPACING: 0.0625
Info: NONBONDED TABLE SIZE: 705 POINTS
TCL: Running for 1500000 steps
ETITLE: TS BOND ANGLE DIHED IMPRP ELECT VDW BOUNDARY MISC KINETIC TOTAL TEMP POTENTIAL TOTALAVG TEMPAVG PRESSURE GPRESSURE VOLUME PRESSAVG GPRESSAVG
ENERGY: 0 6.3962 16.4374 24.7064 0.0000 -10556.1401 1422.8543 0.0000 0.0000 1735.0312 -7350.7146 299.0606 -9085.7458 -7350.7146 299.0606 176.8529 262.6998 29946.6706 176.8529 262.6998
ENERGY: 300000 10.3283 12.4959 21.9521 0.0000 -10465.2000 1348.5075 0.0000 0.0000 1759.5031 -7312.4129 303.2787 -9071.9161 -7354.9268 299.4075 -747.0224 -664.1229 29959.1676 110.8523 187.8888
ENERGY: 600000 1.3807 14.4008 25.5652 0.0000 -10476.3359 1390.1410 0.0000 0.0000 1786.1419 -7258.7062 307.8704 -9044.8482 -7325.1263 302.6381 -42.4641 77.9628 29876.6910 30.8464 114.1359
ENERGY: 900000 2.0609 13.7483 25.5861 0.0000 -10586.4113 1424.5084 0.0000 0.0000 1654.2959 -7466.2118 285.1446 -9120.5077 -7356.6691 299.3781 65.5578 109.6813 29640.9891 72.8674 153.3912
ENERGY: 1200000 3.2693 20.2101 19.9670 0.0000 -10531.7849 1407.9513 0.0000 0.0000 1734.5744 -7345.8129 298.9819 -9080.3873 -7355.0335 299.8849 -170.7645 -105.9323 30104.2102 83.6223 155.0751
ENERGY: 1500000 6.0538 13.4516 21.0527 0.0000 -10568.4052 1436.4660 0.0000 0.0000 1792.8905 -7298.4906 309.0336 -9091.3811 -7356.7730 299.8212 200.0952 271.6368 30162.9876 88.1686 162.7771
TCL: Running FEP window  16: Lambda1 0.24999999999999967 Lambda2 0.19999999999999968 [dLambda -0.04999999999999999]
TCL: Setting parameter firsttimestep to 0
TCL: Setting parameter alchLambda to 0.24999999999999967
Info: NONBONDED TABLE R-SQUARED SPACING: 0.0625
Info: NONBONDED TABLE SIZE: 705 POINTS
TCL: Setting parameter alchLambda2 to 0.19999999999999968
Info: NONBONDED TABLE R-SQUARED SPACING: 0.0625
Info: NONBONDED TABLE SIZE: 705 POINTS
TCL: Running for 1500000 steps
ETITLE: TS BOND ANGLE DIHED IMPRP ELECT VDW BOUNDARY MISC KINETIC TOTAL TEMP POTENTIAL TOTALAVG TEMPAVG PRESSURE GPRESSURE VOLUME PRESSAVG GPRESSAVG
ENERGY: 0 6.0538 13.4516 21.0527 0.0000 -10568.4047 1437.1670 0.0000 0.0000 1792.0150 -7298.6646 308.8827 -9090.6796 -7298.6646 308.8827 192.2054 268.9462 30162.9876 192.2054 268.9462
ENERGY: 300000 4.3500 15.9108 23.5282 0.0000 -10617.5738 1450.1957 0.0000 0.0000 1725.1365 -7398.4527 297.3551 -9123.5892 -7374.6200 297.8991 580.8785 643.1575 29290.0137 74.1251 157.0665
ENERGY: 600000 4.1914 14.8554 21.4272 0.0000 -10623.4066 1395.4110 0.0000 0.0000 1708.9466 -7478.5750 294.5645 -9187.5216 -7403.5235 297.5591 -317.6365 -209.8259 29949.8210 56.5416 133.8203
ENERGY: 900000 3.3721 13.1708 23.0732 0.0000 -10588.3134 1426.2912 0.0000 0.0000 1726.2951 -7396.1109 297.5548 -9122.4061 -7390.6756 297.6072 105.3712 187.5532 29701.2264 58.2944 120.2041
ENERGY: 1200000 8.0690 19.2568 20.5775 0.0000 -10561.9815 1435.2651 0.0000 0.0000 1713.7959 -7365.0172 295.4003 -9078.8131 -7393.3663 297.0248 34.1842 55.3219 30019.7368 12.7382 72.9881
ENERGY: 1500000 4.5982 12.8611 23.6032 0.0000 -10394.8917 1297.1903 0.0000 0.0000 1784.4038 -7272.2352 307.5708 -9056.6390 -7382.9155 297.6310 -1027.3927 -965.7908 30338.9401 -37.2538 19.1935
TCL: Running FEP window  17: Lambda1 0.19999999999999968 Lambda2 0.1499999999999997 [dLambda -0.04999999999999999]
TCL: Setting parameter firsttimestep to 0
TCL: Setting parameter alchLambda to 0.19999999999999968
Info: NONBONDED TABLE R-SQUARED SPACING: 0.0625
Info: NONBONDED TABLE SIZE: 705 POINTS
TCL: Setting parameter alchLambda2 to 0.1499999999999997
Info: NONBONDED TABLE R-SQUARED SPACING: 0.0625
Info: NONBONDED TABLE SIZE: 705 POINTS
TCL: Running for 1500000 steps
ETITLE: TS BOND ANGLE DIHED IMPRP ELECT VDW BOUNDARY MISC KINETIC TOTAL TEMP POTENTIAL TOTALAVG TEMPAVG PRESSURE GPRESSURE VOLUME PRESSAVG GPRESSAVG
ENERGY: 0 4.5982 12.8611 23.6032 0.0000 -10394.8896 1297.1384 0.0000 0.0000 1783.5779 -7273.1109 307.4284 -9056.6888 -7273.1109 307.4284 -1046.3949 -971.9006 30338.9401 -1046.3949 -971.9006
ENERGY: 300000 3.5579 18.2197 24.5506 0.0000 -10491.6579 1409.6092 0.0000 0.0000 1758.3121 -7277.4083 303.0734 -9035.7205 -7349.5359 297.9013 18.7106 133.1907 30064.2961 -177.9840 -74.1645
ENERGY: 600000 2.4647 14.9194 21.1627 0.0000 -10514.8361 1414.9187 0.0000 0.0000 1771.6098 -7289.7607 305.3655 -9061.3705 -7347.1384 299.3670 -25.8777 58.0298 30156.0896 32.4273 110.3820
ENERGY: 900000 5.6702 13.3375 23.6620 0.0000 -10679.8182 1509.9298 0.0000 0.0000 1752.2818 -7374.9369 302.0340 -9127.2187 -7361.0772 298.4870 641.7440 667.1446 29581.0963 29.4803 96.2056
ENERGY: 1200000 3.2168 15.5022 24.2233 0.0000 -10615.3981 1454.7404 0.0000 0.0000 1718.5867 -7399.1286 296.2261 -9117.7153 -7365.4668 299.3082 -5.4608 35.1767 30115.3428 31.2295 92.4629
ENERGY: 1500000 6.1555 9.0164 22.8813 0.0000 -10471.9055 1360.3013 0.0000 0.0000 1753.0322 -7320.5189 302.1634 -9073.5512 -7363.4145 299.3632 -201.9113 -153.2230 29320.3618 105.9065 168.0597
TCL: Running FEP window  18: Lambda1 0.1499999999999997 Lambda2 0.09999999999999969 [dLambda -0.05 ]
TCL: Setting parameter firsttimestep to 0
TCL: Setting parameter alchLambda to 0.1499999999999997
Info: NONBONDED TABLE R-SQUARED SPACING: 0.0625
Info: NONBONDED TABLE SIZE: 705 POINTS
TCL: Setting parameter alchLambda2 to 0.09999999999999969
Info: NONBONDED TABLE R-SQUARED SPACING: 0.0625
Info: NONBONDED TABLE SIZE: 705 POINTS
TCL: Running for 1500000 steps
ETITLE: TS BOND ANGLE DIHED IMPRP ELECT VDW BOUNDARY MISC KINETIC TOTAL TEMP POTENTIAL TOTALAVG TEMPAVG PRESSURE GPRESSURE VOLUME PRESSAVG GPRESSAVG
ENERGY: 0 6.1555 9.0164 22.8813 0.0000 -10471.9070 1360.7540 0.0000 0.0000 1752.1570 -7320.9430 302.0125 -9073.0999 -7320.9430 302.0125 -240.0207 -153.8313 29320.3618 -240.0207 -153.8313
ENERGY: 300000 5.4767 9.9713 22.7219 0.0000 -10614.3711 1503.0564 0.0000 0.0000 1643.6434 -7429.5014 283.3084 -9073.1448 -7388.4739 292.2650 595.2022 654.7451 30260.4288 154.4473 213.9265
ENERGY: 600000 2.3044 12.9482 23.4193 0.0000 -10528.7634 1394.5964 0.0000 0.0000 1705.8800 -7389.6151 294.0359 -9095.4951 -7395.3325 294.3245 -172.8781 -166.0808 29999.3281 123.5757 172.2427
ENERGY: 900000 2.4131 17.6483 26.6450 0.0000 -10449.7139 1333.8083 0.0000 0.0000 1743.2742 -7325.9250 300.4814 -9069.1992 -7382.4681 296.3728 -544.2616 -437.9476 29811.0295 63.9182 114.9502
ENERGY: 1200000 2.6149 14.8203 22.1052 0.0000 -10513.1767 1375.4599 0.0000 0.0000 1733.4996 -7364.6769 298.7966 -9098.1764 -7386.4538 296.7196 -334.3642 -275.2250 29859.5352 -85.3910 -26.7708
ENERGY: 1500000 4.3292 14.9774 21.5796 0.0000 -10409.5784 1401.3879 0.0000 0.0000 1760.2465 -7207.0577 303.4069 -8967.3042 -7376.0580 297.5634 61.7993 154.6801 30209.1730 -99.8387 -43.0857
TCL: Running FEP window  19: Lambda1 0.09999999999999969 Lambda2 0.049999999999999684 [dLambda -0.05 ]
TCL: Setting parameter firsttimestep to 0
TCL: Setting parameter alchLambda to 0.09999999999999969
Info: NONBONDED TABLE R-SQUARED SPACING: 0.0625
Info: NONBONDED TABLE SIZE: 705 POINTS
TCL: Setting parameter alchLambda2 to 0.049999999999999684
Info: NONBONDED TABLE R-SQUARED SPACING: 0.0625
Info: NONBONDED TABLE SIZE: 705 POINTS
TCL: Running for 1500000 steps
ETITLE: TS BOND ANGLE DIHED IMPRP ELECT VDW BOUNDARY MISC KINETIC TOTAL TEMP POTENTIAL TOTALAVG TEMPAVG PRESSURE GPRESSURE VOLUME PRESSAVG GPRESSAVG
ENERGY: 0 4.3292 14.9774 21.5796 0.0000 -10409.5796 1400.8754 0.0000 0.0000 1759.3704 -7208.4477 303.2558 -8967.8180 -7208.4477 303.2558 42.4993 149.0912 30209.1730 42.4993 149.0912
ENERGY: 300000 7.4279 12.4792 25.4030 0.0000 -10513.0946 1446.8520 0.0000 0.0000 1754.7395 -7266.1931 302.4576 -9020.9326 -7294.1232 303.8124 -43.1539 37.2873 30222.5361 2.8427 65.4691
ENERGY: 600000 4.8956 13.1823 24.4708 0.0000 -10485.4440 1351.1882 0.0000 0.0000 1765.3409 -7326.3662 304.2850 -9091.7070 -7315.9205 303.8835 -138.0122 -167.2549 29386.5370 39.1547 83.8922
ENERGY: 900000 5.1363 16.1713 25.3133 0.0000 -10694.8003 1466.9499 0.0000 0.0000 1779.9165 -7401.3129 306.7973 -9181.2294 -7341.4311 302.4600 610.2176 635.1411 28663.7243 -25.7315 19.4415
ENERGY: 1200000 3.9354 15.7491 24.9192 0.0000 -10555.2581 1419.2152 0.0000 0.0000 1780.3010 -7311.1383 306.8636 -9091.4393 -7350.1268 301.8310 241.0408 233.4813 29453.0509 -66.5779 -28.3965
ENERGY: 1500000 5.5335 14.1600 22.9485 0.0000 -10567.0773 1492.7971 0.0000 0.0000 1719.8221 -7311.8161 296.4391 -9031.6382 -7350.3310 300.1713 698.5493 792.5568 30082.3351 -17.3207 26.5997
TCL: Running FEP window  20: Lambda1 0.049999999999999684 Lambda2 0.0    [dLambda -0.049999999999999684]
TCL: Setting parameter firsttimestep to 0
TCL: Setting parameter alchLambda to 0.049999999999999684
Info: NONBONDED TABLE R-SQUARED SPACING: 0.0625
Info: NONBONDED TABLE SIZE: 705 POINTS
TCL: Setting parameter alchLambda2 to 0.0
Info: NONBONDED TABLE R-SQUARED SPACING: 0.0625
Info: NONBONDED TABLE SIZE: 705 POINTS
TCL: Running for 1500000 steps
ETITLE: TS BOND ANGLE DIHED IMPRP ELECT VDW BOUNDARY MISC KINETIC TOTAL TEMP POTENTIAL TOTALAVG TEMPAVG PRESSURE GPRESSURE VOLUME PRESSAVG GPRESSAVG
ENERGY: 0 5.5336 14.1600 22.9485 0.0000 -10567.0763 1493.3801 0.0000 0.0000 1718.9578 -7312.0963 296.2901 -9031.0541 -7312.0963 296.2901 724.2818 791.6118 30082.3351 724.2818 791.6118
ENERGY: 300000 4.7142 16.0191 24.8732 0.0000 -10608.3611 1502.6947 0.0000 0.0000 1790.6646 -7269.3953 308.6499 -9060.0600 -7297.8774 299.8388 665.0402 640.6070 29846.5993 489.2085 532.6643
ENERGY: 600000 2.7333 18.5846 21.5054 0.0000 -10564.1084 1417.0915 0.0000 0.0000 1783.3487 -7320.8449 307.3889 -9104.1936 -7328.4009 300.4998 66.4001 183.3894 29617.8725 375.3839 444.0224
ENERGY: 900000 3.8888 7.3354 22.7762 0.0000 -10664.8546 1474.5741 0.0000 0.0000 1735.1401 -7421.1400 299.0794 -9156.2801 -7333.9418 301.8736 272.5227 317.3267 29407.2056 283.5531 350.7059
ENERGY: 1200000 4.7055 11.2145 21.7637 0.0000 -10621.3095 1496.5086 0.0000 0.0000 1735.2212 -7351.8960 299.0933 -9087.1172 -7351.0084 300.6262 485.7325 538.3712 29933.0312 247.5475 304.9463
ENERGY: 1500000 4.1697 15.1419 23.5532 0.0000 -10345.6081 1309.7892 0.0000 0.0000 1677.4230 -7315.5311 289.1309 -8992.9541 -7359.5233 299.6308 -757.2994 -661.1982 30077.1166 80.8062 144.6700
TCL: Exiting due to exit command.
