Info: SIMULATION PARAMETERS:
Info: TIMESTEP               2
Info: NUMBER OF STEPS        0
Info: STEPS PER CYCLE        10
Info: PERIODIC CELL BASIS 1  34.8869 0 0
Info: PERIODIC CELL BASIS 2  0 28.9904 0
Info: PERIODIC CELL BASIS 3  0 0 30.1963
Info: PERIODIC CELL CENTER   0 0 0
Info: WRAPPING WATERS AROUND PERIODIC BOUNDARIES ON OUTPUT.
Info: WRAPPING ALL CLUSTERS AROUND PERIODIC BOUNDARIES ON OUTPUT.
Info: FIRST LDB TIMESTEP     50
Info: LAST LDB TIMESTEP     -1
Info: HOM BACKGROUND SCALING 1
Info: PME BACKGROUND SCALING 1
Info: MIN ATOMS PER PATCH    40
Info: EMPTY PATCH LOAD       40 ATOMS
Info: VELOCITY FILE          mobley_2517158_equil.vel
Info: CENTER OF MASS MOVING INITIALLY? NO
Info: DIELECTRIC             1
Info: EXCLUDE                SCALED ONE-FOUR
Info: 1-4 ELECTROSTATICS SCALED BY 0.833333
Info: MODIFIED 1-4 VDW PARAMETERS WILL BE USED
Info: DCD FILENAME           mobley_2517158_prod.dcd
Info: DCD FREQUENCY          100000
Info: DCD FIRST STEP         100000
Info: DCD FILE WILL CONTAIN UNIT CELL DATA
Info: XST FILENAME           mobley_2517158_prod.xst
Info: XST FREQUENCY          100000
Info: NO VELOCITY DCD OUTPUT
Info: NO FORCE DCD OUTPUT
Info: OUTPUT FILENAME        mobley_2517158_prod
Info: BINARY OUTPUT FILES WILL BE USED
Info: RESTART FILENAME       mobley_2517158_prod.restart
Info: RESTART FREQUENCY      100000
Info: BINARY RESTART FILES WILL BE USED
Info: CUTOFF                 9
Info: PAIRLIST DISTANCE      11
Info: PAIRLIST SHRINK RATE   0.01
Info: PAIRLIST GROW RATE     0.01
Info: PAIRLIST TRIGGER       0.3
Info: PAIRLISTS PER CYCLE    2
Info: PAIRLISTS ENABLED
Info: MARGIN                 2
Info: HYDROGEN GROUP CUTOFF  2.5
Info: PATCH DIMENSION        15.5
Info: ENERGY OUTPUT STEPS    100000
Info: ENERGY EVALUATION STEPS    100000
Info: OUTPUT ENERGY PRECISION 4
Info: CROSSTERM ENERGY INCLUDED IN DIHEDRAL
Info: TIMING OUTPUT STEPS    1000000
Info: PRESSURE OUTPUT STEPS  100000
Info: ALCHEMICAL FEP ON
Info: FEP CURRENT LAMBDA VALUE     0
Info: FEP COMPARISON LAMBDA VALUE  0.05
Info: FEP INTRA-ALCHEMICAL NON-BONDED INTERACTIONS WILL BE RETAINED
Info: FEP INTRA-ALCHEMICAL BONDED INTERACTIONS WILL BE RETAINED
Info: FEP VDW SHIFTING COEFFICIENT 5
Info: FEP ELEC. ACTIVE FOR ANNIHILATED PARTICLES BETWEEN LAMBDA = 0 AND LAMBDA = 0.5
Info: FEP ELEC. ACTIVE FOR EXNIHILATED PARTICLES BETWEEN LAMBDA = 0.5 AND LAMBDA = 1
Info: FEP VDW ACTIVE FOR ANNIHILATED PARTICLES BETWEEN LAMBDA = 0 AND LAMBDA = 1
Info: FEP VDW ACTIVE FOR EXNIHILATED PARTICLES BETWEEN LAMBDA = 0 AND LAMBDA = 1
Info: FEP BOND ACTIVE FOR ANNIHILATED PARTICLES BETWEEN LAMBDA = 1 AND LAMBDA = 1
Info: FEP BOND ACTIVE FOR EXNIHILATED PARTICLES BETWEEN LAMBDA = 0 AND LAMBDA = 0
Info: LANGEVIN DYNAMICS ACTIVE
Info: LANGEVIN TEMPERATURE   300
Info: LANGEVIN USING BBK INTEGRATOR
Info: LANGEVIN DAMPING COEFFICIENT IS 1 INVERSE PS
Info: LANGEVIN DYNAMICS APPLIED TO HYDROGENS
Info: LANGEVIN PISTON PRESSURE CONTROL ACTIVE
Info:        TARGET PRESSURE IS 1.01325 BAR
Info:     OSCILLATION PERIOD IS 50 FS
Info:             DECAY TIME IS 25 FS
Info:     PISTON TEMPERATURE IS 300 K
Info:       PRESSURE CONTROL IS GROUP-BASED
Info:    INITIAL STRAIN RATE IS -6.18207e-05 -6.18207e-05 -6.18207e-05
Info:       CELL FLUCTUATION IS ISOTROPIC
Info: PARTICLE MESH EWALD (PME) ACTIVE
Info: PME TOLERANCE               1e-06
Info: PME EWALD COEFFICIENT       0.348832
Info: PME INTERPOLATION ORDER     4
Info: PME GRID DIMENSIONS         36 32 32
Info: PME MAXIMUM GRID SPACING    1
Info: PME CALCULATION WILL BE PERFORMED ON GPU
Info: FULL ELECTROSTATIC EVALUATION FREQUENCY      2
Info: USING VERLET I (r-RESPA) MTS SCHEME.
Info: C1 SPLITTING OF LONG RANGE ELECTROSTATICS
Info: PLACING ATOMS IN PATCHES BY HYDROGEN GROUPS
Info: RIGID BONDS TO HYDROGEN : ALL
Info:         ERROR TOLERANCE : 1e-08
Info:          MAX ITERATIONS : 100
Info: RIGID WATER USING SETTLE ALGORITHM
Info: RANDOM NUMBER SEED     1744010751
Info: USE HYDROGEN BONDS?    NO
Info: Using AMBER format force field!
Info: AMBER PARM FILE        mobley_2517158.prmtop
Info: COORDINATE PDB         mobley_2517158.pdb
Info: Exclusions will be read from PARM file!
Info: SCNB (VDW SCALING)     2
Info: USING ARITHMETIC MEAN TO COMBINE L-J SIGMA PARAMETERS
Info: BINARY COORDINATES     mobley_2517158_equil.coor
Info: SUMMARY OF PARAMETERS:
Info: 6 BONDS
Info: 7 ANGLES
Info:   7 HARMONIC
Info:   0 COSINE-BASED
Info: 8 DIHEDRAL
Info: 0 IMPROPER
Info: 0 CROSSTERM
Info: 0 VDW
Info: 21 VDW_PAIRS
Info: 0 NBTHOLE_PAIRS
Info: To read alchdata from file: mobley_2517158.pdb
Info: To read alchflag data from column: 5
Info: STRUCTURE SUMMARY:
Info: 2963 ATOMS
Info: 2962 BONDS
Info: 42 ANGLES
Info: 64 DIHEDRALS
Info: 0 IMPROPERS
Info: 0 CROSSTERMS
Info: 3058 EXCLUSIONS
Info: 2955 RIGID BONDS
Info: ALCH: 0 ATOMS TO DISAPPEAR IN FINAL STATE
Info: ALCH: 23 ATOMS TO APPEAR IN FINAL STATE
Info: 5934 DEGREES OF FREEDOM
Info: 988 HYDROGEN GROUPS
Info: 4 ATOMS IN LARGEST HYDROGEN GROUP
Info: 988 MIGRATION GROUPS
Info: 4 ATOMS IN LARGEST MIGRATION GROUP
Info: TOTAL MASS = 17834.8 amu
Info: TOTAL CHARGE = 0.000199994 e
Info: MASS DENSITY = 0.969741 g/cm^3
Info: ATOM DENSITY = 0.0970199 atoms/A^3
Info: ADDED 0 IMPLICIT EXCLUSIONS
Info: NONBONDED TABLE R-SQUARED SPACING: 0.0625
Info: NONBONDED TABLE SIZE: 705 POINTS
Info: REMOVING COM VELOCITY 0.0706964 -0.342856 -0.206783
Info: Use 3D box decompostion in PME FFT.
Info: Updated CUDA force table with 4096 elements.
Info: Updated CUDA LJ table with 6 x 6 elements.
Info: Found 26 unique exclusion lists needing 84 bytes
TCL: Running for 1500000 steps
ETITLE: TS BOND ANGLE DIHED IMPRP ELECT VDW BOUNDARY MISC KINETIC TOTAL TEMP POTENTIAL TOTALAVG TEMPAVG PRESSURE GPRESSURE VOLUME PRESSAVG GPRESSAVG
ENERGY: 0 2.5836 10.1529 4.9530 0.0000 -10729.5061 1454.3702 0.0000 0.0000 1751.6414 -7505.8049 297.0900 -9257.4463 -7505.8049 297.0900 -174.7894 -91.7718 30540.1253 -174.7894 -91.7718
ENERGY: 300000 0.8667 12.7656 5.0470 0.0000 -10700.6811 1380.3290 0.0000 0.0000 1771.4889 -7530.1839 300.4563 -9301.6728 -7494.9659 300.8112 -552.1122 -451.5570 30231.9677 -170.7912 -79.5510
ENERGY: 600000 1.3188 6.9727 3.9122 0.0000 -10629.3447 1394.7504 0.0000 0.0000 1828.5676 -7393.8231 310.1372 -9222.3906 -7482.5112 300.1959 -506.8722 -396.8760 30615.2522 -366.4697 -281.1677
ENERGY: 900000 1.3675 14.5285 3.5036 0.0000 -10671.4872 1389.2131 0.0000 0.0000 1796.0442 -7466.8302 304.6210 -9262.8744 -7478.2430 300.2672 -586.5607 -547.6002 30533.5009 -310.0310 -233.4271
ENERGY: 1200000 2.1552 12.1207 4.5417 0.0000 -10603.8611 1374.0491 0.0000 0.0000 1829.3301 -7381.6642 310.2665 -9210.9943 -7465.3441 300.9892 -783.9453 -707.9818 30770.5092 -281.5785 -206.5830
ENERGY: 1500000 1.1003 11.9729 4.7195 0.0000 -10783.2276 1494.7670 0.0000 0.0000 1774.4991 -7496.1690 300.9668 -9270.6680 -7475.6498 300.1865 103.3205 234.2091 30384.4504 -212.7693 -140.9511
TCL: Running FEP window   2: Lambda1 0.05   Lambda2 0.1    [dLambda 0.05  ]
TCL: Setting parameter firsttimestep to 0
TCL: Setting parameter alchLambda to 0.05
Info: NONBONDED TABLE R-SQUARED SPACING: 0.0625
Info: NONBONDED TABLE SIZE: 705 POINTS
TCL: Setting parameter alchLambda2 to 0.1
Info: NONBONDED TABLE R-SQUARED SPACING: 0.0625
Info: NONBONDED TABLE SIZE: 705 POINTS
TCL: Running for 1500000 steps
ETITLE: TS BOND ANGLE DIHED IMPRP ELECT VDW BOUNDARY MISC KINETIC TOTAL TEMP POTENTIAL TOTALAVG TEMPAVG PRESSURE GPRESSURE VOLUME PRESSAVG GPRESSAVG
ENERGY: 0 1.1003 11.9729 4.7195 0.0000 -10783.2284 1498.5617 0.0000 0.0000 1773.5898 -7493.2843 300.8126 -9266.8741 -7493.2843 300.8126 146.5021 240.4867 30384.4504 146.5021 240.4867
ENERGY: 300000 3.7307 11.3078 3.0992 0.0000 -10628.8010 1441.1325 0.0000 0.0000 1771.5520 -7397.9787 300.4670 -9169.5307 -7469.2409 303.7138 430.8759 432.7626 29945.5069 275.4682 310.6550
ENERGY: 600000 2.8159 13.4940 6.3108 0.0000 -10582.5653 1332.6714 0.0000 0.0000 1763.0202 -7464.2531 299.0199 -9227.2732 -7465.1194 302.4288 -809.1919 -766.7302 30449.0587 -106.5900 -56.8519
ENERGY: 900000 4.0677 12.1925 4.4994 0.0000 -10650.1682 1419.5334 0.0000 0.0000 1775.0652 -7434.8098 301.0628 -9209.8751 -7451.2718 303.6140 -657.8187 -472.0443 30671.5058 -143.6087 -78.7488
ENERGY: 1200000 3.1056 13.8845 7.2949 0.0000 -10694.8935 1424.6760 0.0000 0.0000 1799.0287 -7446.9039 305.1272 -9245.9326 -7439.5283 303.6470 -242.1615 -194.1818 30368.7902 -113.3513 -44.4086
ENERGY: 1500000 0.9016 14.9590 3.7486 0.0000 -10706.0601 1466.4691 0.0000 0.0000 1802.7034 -7417.2784 305.7505 -9219.9818 -7445.2594 303.3200 169.8340 156.8835 30501.1449 -76.3140 -15.9330
TCL: Running FEP window   3: Lambda1 0.1    Lambda2 0.15000000000000002 [dLambda 0.05000000000000002]
TCL: Setting parameter firsttimestep to 0
TCL: Setting parameter alchLambda to 0.1
Info: NONBONDED TABLE R-SQUARED SPACING: 0.0625
Info: NONBONDED TABLE SIZE: 705 POINTS
TCL: Setting parameter alchLambda2 to 0.15000000000000002
Info: NONBONDED TABLE R-SQUARED SPACING: 0.0625
Info: NONBONDED TABLE SIZE: 705 POINTS
TCL: Running for 1500000 steps
ETITLE: TS BOND ANGLE DIHED IMPRP ELECT VDW BOUNDARY MISC KINETIC TOTAL TEMP POTENTIAL TOTALAVG TEMPAVG PRESSURE GPRESSURE VOLUME PRESSAVG GPRESSAVG
ENERGY: 0 0.9016 14.9590 3.7486 0.0000 -10706.0593 1469.2225 0.0000 0.0000 1801.8179 -7415.4098 305.6003 -9217.2277 -7415.4098 305.6003 77.8577 167.6377 30501.1449 77.8577 167.6377
ENERGY: 300000 2.2815 7.7093 4.6679 0.0000 -10708.1568 1468.7359 0.0000 0.0000 1823.5647 -7401.1976 309.2887 -9224.7623 -7442.6612 301.7800 260.4504 343.8339 30276.4920 197.1066 265.7764
ENERGY: 600000 3.8303 8.1482 7.0383 0.0000 -10592.7907 1343.5269 0.0000 0.0000 1732.7748 -7497.4723 293.8901 -9230.2470 -7467.0466 300.9197 -904.9092 -899.2166 30534.5699 155.2881 216.9570
ENERGY: 900000 1.3685 9.6860 4.0391 0.0000 -10632.9453 1365.3561 0.0000 0.0000 1766.1242 -7486.3714 299.5464 -9252.4956 -7475.5332 300.3171 -556.1362 -566.0848 30499.9216 62.2817 115.3276
ENERGY: 1200000 5.3833 12.8134 3.7994 0.0000 -10671.8668 1402.3758 0.0000 0.0000 1809.5451 -7437.9499 306.9109 -9247.4950 -7469.8013 300.8065 -591.4941 -511.5523 30865.4542 50.8340 107.2473
ENERGY: 1500000 1.3026 10.8393 5.2920 0.0000 -10720.5309 1462.9362 0.0000 0.0000 1725.1541 -7515.0067 292.5976 -9240.1607 -7474.1807 300.1686 280.6389 234.1819 30521.0366 56.1563 100.6035
TCL: Running FEP window   4: Lambda1 0.15000000000000002 Lambda2 0.2    [dLambda 0.04999999999999999]
TCL: Setting parameter firsttimestep to 0
TCL: Setting parameter alchLambda to 0.15000000000000002
Info: NONBONDED TABLE R-SQUARED SPACING: 0.0625
Info: NONBONDED TABLE SIZE: 705 POINTS
TCL: Setting parameter alchLambda2 to 0.2
Info: NONBONDED TABLE R-SQUARED SPACING: 0.0625
Info: NONBONDED TABLE SIZE: 705 POINTS
TCL: Running for 1500000 steps
ETITLE: TS BOND ANGLE DIHED IMPRP ELECT VDW BOUNDARY MISC KINETIC TOTAL TEMP POTENTIAL TOTALAVG TEMPAVG PRESSURE GPRESSURE VOLUME PRESSAVG GPRESSAVG
ENERGY: 0 1.3026 10.8393 5.2920 0.0000 -10720.5308 1463.6459 0.0000 0.0000 1724.2712 -7515.1797 292.4478 -9239.4509 -7515.1797 292.4478 159.1739 242.7148 30521.0366 159.1739 242.7148
ENERGY: 300000 1.6376 7.5180 4.5009 0.0000 -10723.6771 1426.3121 0.0000 0.0000 1815.4965 -7468.2120 307.9203 -9283.7085 -7500.4565 299.9696 -203.0290 -144.5048 30265.7279 -5.7987 52.6166
ENERGY: 600000 2.6989 7.5558 3.2481 0.0000 -10809.6728 1545.5109 0.0000 0.0000 1806.6302 -7444.0288 306.4165 -9250.6591 -7479.8599 299.9433 607.9041 720.9336 30138.1504 -11.8736 50.2268
ENERGY: 900000 0.8284 13.0973 4.5401 0.0000 -10694.0537 1473.9800 0.0000 0.0000 1750.0943 -7451.5137 296.8276 -9201.6079 -7452.5282 300.8931 478.4180 503.1343 30236.9647 33.7298 83.5913
ENERGY: 1200000 1.7121 5.6398 6.0568 0.0000 -10608.0460 1397.7750 0.0000 0.0000 1774.9871 -7421.8753 301.0496 -9196.8624 -7462.2630 300.1469 -355.3906 -336.9279 30553.0659 -31.3575 17.0693
ENERGY: 1500000 1.0405 10.2265 3.3469 0.0000 -10775.9094 1438.3698 0.0000 0.0000 1820.4380 -7502.4876 308.7584 -9322.9256 -7468.0569 300.4640 -176.5897 -50.8346 30002.8179 10.3000 68.3041
TCL: Running FEP window   5: Lambda1 0.2    Lambda2 0.25   [dLambda 0.04999999999999999]
TCL: Setting parameter firsttimestep to 0
TCL: Setting parameter alchLambda to 0.2
Info: NONBONDED TABLE R-SQUARED SPACING: 0.0625
Info: NONBONDED TABLE SIZE: 705 POINTS
TCL: Setting parameter alchLambda2 to 0.25
Info: NONBONDED TABLE R-SQUARED SPACING: 0.0625
Info: NONBONDED TABLE SIZE: 705 POINTS
TCL: Running for 1500000 steps
ETITLE: TS BOND ANGLE DIHED IMPRP ELECT VDW BOUNDARY MISC KINETIC TOTAL TEMP POTENTIAL TOTALAVG TEMPAVG PRESSURE GPRESSURE VOLUME PRESSAVG GPRESSAVG
ENERGY: 0 1.0405 10.2265 3.3469 0.0000 -10775.9100 1439.7179 0.0000 0.0000 1819.5735 -7502.0046 308.6117 -9321.5781 -7502.0046 308.6117 -145.4960 -38.2278 30002.8179 -145.4960 -38.2278
ENERGY: 300000 2.5911 6.9844 5.5115 0.0000 -10811.4916 1476.9728 0.0000 0.0000 1754.9890 -7564.4429 297.6578 -9319.4319 -7517.0256 299.8259 -41.5764 -59.4691 30365.2386 12.0190 40.4909
ENERGY: 600000 3.2083 13.6161 4.6456 0.0000 -10626.5283 1416.7066 0.0000 0.0000 1778.4374 -7409.9143 301.6348 -9188.3517 -7486.1813 302.2807 -277.9115 -207.4605 30634.3744 26.6935 74.1799
ENERGY: 900000 3.3907 16.6183 6.8040 0.0000 -10747.0238 1469.0810 0.0000 0.0000 1778.1124 -7473.0174 301.5797 -9251.1298 -7490.1673 300.8956 117.1743 166.8648 30248.1195 -31.1316 20.9506
ENERGY: 1200000 1.0118 10.5200 3.0175 0.0000 -10635.9544 1370.1445 0.0000 0.0000 1755.5015 -7495.7592 297.7447 -9251.2607 -7482.6984 301.4761 -905.5409 -793.9179 31096.6606 -136.4210 -71.0523
ENERGY: 1500000 2.8404 11.5611 5.6916 0.0000 -10680.7252 1450.8977 0.0000 0.0000 1733.3747 -7476.3596 293.9918 -9209.7342 -7482.2371 300.6705 86.0140 155.5904 30274.9221 -148.3565 -90.5339
TCL: Running FEP window   6: Lambda1 0.25   Lambda2 0.3    [dLambda 0.04999999999999999]
TCL: Setting parameter firsttimestep to 0
TCL: Setting parameter alchLambda to 0.25
Info: NONBONDED TABLE R-SQUARED SPACING: 0.0625
Info: NONBONDED TABLE SIZE: 705 POINTS
TCL: Setting parameter alchLambda2 to 0.3
Info: NONBONDED TABLE R-SQUARED SPACING: 0.0625
Info: NONBONDED TABLE SIZE: 705 POINTS
TCL: Running for 1500000 steps
ETITLE: TS BOND ANGLE DIHED IMPRP ELECT VDW BOUNDARY MISC KINETIC TOTAL TEMP POTENTIAL TOTALAVG TEMPAVG PRESSURE GPRESSURE VOLUME PRESSAVG GPRESSAVG
ENERGY: 0 2.8404 11.5611 5.6916 0.0000 -10680.7245 1451.9824 0.0000 0.0000 1732.5142 -7476.1347 293.8459 -9208.6489 -7476.1347 293.8459 75.6272 165.4751 30274.9221 75.6272 165.4751
ENERGY: 300000 3.0973 8.7161 5.4058 0.0000 -10698.2159 1446.3523 0.0000 0.0000 1800.1950 -7434.4493 305.3250 -9234.6443 -7450.0731 299.0628 -247.8258 -199.0268 30826.3662 -65.7304 -9.7562
ENERGY: 600000 3.3701 11.5789 4.0021 0.0000 -10543.8452 1332.4616 0.0000 0.0000 1798.8104 -7393.6220 305.0902 -9192.4325 -7459.3752 298.9633 -719.6230 -631.9289 30190.6770 -53.9000 16.7439
ENERGY: 900000 1.1309 6.5964 4.8621 0.0000 -10789.8318 1521.4385 0.0000 0.0000 1812.4434 -7443.3605 307.4024 -9255.8039 -7457.5207 300.1538 690.0046 745.1111 30329.6782 1.8776 72.8050
ENERGY: 1200000 0.8569 10.4443 3.6704 0.0000 -10578.1625 1372.1313 0.0000 0.0000 1764.6058 -7426.4538 299.2889 -9191.0596 -7460.4942 299.6797 -519.6979 -463.9465 30812.6120 -69.2349 -0.2075
ENERGY: 1500000 2.8015 9.1381 5.4256 0.0000 -10502.7440 1335.1237 0.0000 0.0000 1790.6532 -7359.6019 303.7067 -9150.2550 -7446.0177 300.4577 -851.5675 -693.8852 30700.8030 -114.0339 -36.8350
TCL: Running FEP window   7: Lambda1 0.3    Lambda2 0.35   [dLambda 0.04999999999999999]
TCL: Setting parameter firsttimestep to 0
TCL: Setting parameter alchLambda to 0.3
Info: NONBONDED TABLE R-SQUARED SPACING: 0.0625
Info: NONBONDED TABLE SIZE: 705 POINTS
TCL: Setting parameter alchLambda2 to 0.35
Info: NONBONDED TABLE R-SQUARED SPACING: 0.0625
Info: NONBONDED TABLE SIZE: 705 POINTS
TCL: Running for 1500000 steps
ETITLE: TS BOND ANGLE DIHED IMPRP ELECT VDW BOUNDARY MISC KINETIC TOTAL TEMP POTENTIAL TOTALAVG TEMPAVG PRESSURE GPRESSURE VOLUME PRESSAVG GPRESSAVG
ENERGY: 0 2.8015 9.1381 5.4256 0.0000 -10502.7427 1336.0983 0.0000 0.0000 1789.8012 -7359.4779 303.5622 -9149.2791 -7359.4779 303.5622 -793.0773 -685.6750 30700.8030 -793.0773 -685.6750
ENERGY: 300000 0.9580 9.8302 4.3890 0.0000 -10852.0192 1527.2535 0.0000 0.0000 1738.8158 -7570.7727 294.9147 -9309.5885 -7488.6852 297.7476 738.0689 762.3582 30128.6072 66.1495 119.1306
ENERGY: 600000 1.9273 9.1891 4.1865 0.0000 -10690.5216 1446.5755 0.0000 0.0000 1750.2204 -7478.4228 296.8490 -9228.6432 -7484.8449 297.6221 31.3956 85.1668 30390.8267 -98.8728 -51.1914
ENERGY: 900000 2.2065 9.5083 4.1563 0.0000 -10722.2765 1433.7522 0.0000 0.0000 1768.3509 -7504.3023 299.9240 -9272.6532 -7482.4814 297.3006 -254.9355 -183.8552 30575.9465 -44.5720 6.4986
ENERGY: 1200000 3.0136 10.7477 5.2792 0.0000 -10722.6691 1464.9674 0.0000 0.0000 1651.6975 -7586.9636 280.1389 -9238.6611 -7488.6294 295.5387 75.5349 159.3699 30518.1564 -1.5260 48.3120
ENERGY: 1500000 3.1870 9.1120 5.4397 0.0000 -10801.8315 1474.3976 0.0000 0.0000 1767.1876 -7542.5076 299.7268 -9309.6952 -7479.0256 296.8063 -67.4892 1.3122 30399.8053 7.6102 66.9393
TCL: Running FEP window   8: Lambda1 0.35   Lambda2 0.39999999999999997 [dLambda 0.04999999999999999]
TCL: Setting parameter firsttimestep to 0
TCL: Setting parameter alchLambda to 0.35
Info: NONBONDED TABLE R-SQUARED SPACING: 0.0625
Info: NONBONDED TABLE SIZE: 705 POINTS
TCL: Setting parameter alchLambda2 to 0.39999999999999997
Info: NONBONDED TABLE R-SQUARED SPACING: 0.0625
Info: NONBONDED TABLE SIZE: 705 POINTS
TCL: Running for 1500000 steps
ETITLE: TS BOND ANGLE DIHED IMPRP ELECT VDW BOUNDARY MISC KINETIC TOTAL TEMP POTENTIAL TOTALAVG TEMPAVG PRESSURE GPRESSURE VOLUME PRESSAVG GPRESSAVG
ENERGY: 0 3.1870 9.1120 5.4397 0.0000 -10801.8313 1474.1255 0.0000 0.0000 1766.2690 -7543.6981 299.5709 -9309.9671 -7543.6981 299.5709 -80.2373 5.2252 30399.8053 -80.2373 5.2252
ENERGY: 300000 1.0648 17.0284 5.1832 0.0000 -10611.2971 1418.7456 0.0000 0.0000 1759.5732 -7409.7019 298.4353 -9169.2751 -7465.0782 297.2001 145.6494 239.2868 30034.2920 344.0504 401.9819
ENERGY: 600000 5.6405 9.4226 4.2285 0.0000 -10652.3548 1367.0038 0.0000 0.0000 1695.5551 -7570.5043 287.5774 -9266.0593 -7448.9862 298.3603 -882.7254 -826.8565 30474.9319 -54.5200 2.0158
ENERGY: 900000 1.7623 6.9585 3.6268 0.0000 -10782.2402 1459.2291 0.0000 0.0000 1739.9370 -7570.7265 295.1049 -9310.6635 -7459.4071 297.4089 -348.9409 -313.6380 30816.8569 -132.9714 -80.1766
ENERGY: 1200000 2.1586 15.1297 4.1972 0.0000 -10824.4031 1516.7525 0.0000 0.0000 1772.4533 -7513.7118 300.6198 -9286.1651 -7470.5333 296.9756 416.7549 444.4468 30422.3467 -118.8163 -67.8635
ENERGY: 1500000 2.4060 12.3250 3.8069 0.0000 -10744.3535 1439.3008 0.0000 0.0000 1750.9180 -7535.5968 296.9673 -9286.5148 -7473.3513 298.0189 -22.0142 50.0480 29886.0947 -130.2771 -79.9114
TCL: Running FEP window   9: Lambda1 0.39999999999999997 Lambda2 0.44999999999999996 [dLambda 0.04999999999999999]
TCL: Setting parameter firsttimestep to 0
TCL: Setting parameter alchLambda to 0.39999999999999997
Info: NONBONDED TABLE R-SQUARED SPACING: 0.0625
Info: NONBONDED TABLE SIZE: 705 POINTS
TCL: Setting parameter alchLambda2 to 0.44999999999999996
Info: NONBONDED TABLE R-SQUARED SPACING: 0.0625
Info: NONBONDED TABLE SIZE: 705 POINTS
TCL: Running for 1500000 steps
ETITLE: TS BOND ANGLE DIHED IMPRP ELECT VDW BOUNDARY MISC KINETIC TOTAL TEMP POTENTIAL TOTALAVG TEMPAVG PRESSURE GPRESSURE VOLUME PRESSAVG GPRESSAVG
ENERGY: 0 2.4060 12.3250 3.8069 0.0000 -10744.3535 1439.5088 0.0000 0.0000 1750.0335 -7536.2732 296.8173 -9286.3068 -7536.2732 296.8173 -35.3911 58.5127 29886.0947 -35.3911 58.5127
ENERGY: 300000 3.2083 6.7081 4.4223 0.0000 -10805.7760 1542.0420 0.0000 0.0000 1758.8598 -7490.5354 298.3143 -9249.3952 -7497.0882 296.2004 881.8824 883.2549 29965.5805 493.7662 548.0628
ENERGY: 600000 2.4810 6.3731 3.2324 0.0000 -10688.7412 1437.7859 0.0000 0.0000 1685.2796 -7553.5892 285.8346 -9238.8689 -7500.8841 296.2982 -203.8027 -140.4680 30443.3157 249.0128 295.0850
ENERGY: 900000 0.9691 9.3734 4.9074 0.0000 -10760.0123 1464.3270 0.0000 0.0000 1734.1090 -7546.3265 294.1164 -9280.4354 -7507.5187 296.0230 69.8976 148.6813 30443.8184 163.8530 214.4926
ENERGY: 1200000 3.6799 13.4005 4.9591 0.0000 -10616.1099 1383.5220 0.0000 0.0000 1843.9690 -7366.5794 312.7494 -9210.5484 -7476.8808 298.7620 -324.8718 -266.4318 30313.2230 128.3952 185.8256
ENERGY: 1500000 1.4001 13.1519 4.7157 0.0000 -10507.0228 1325.0624 0.0000 0.0000 1771.8251 -7390.8676 300.5133 -9162.6927 -7476.3304 298.3671 -453.7809 -470.1834 30093.2523 121.9623 175.7524
TCL: Running FEP window  10: Lambda1 0.44999999999999996 Lambda2 0.49999999999999994 [dLambda 0.04999999999999999]
TCL: Setting parameter firsttimestep to 0
TCL: Setting parameter alchLambda to 0.44999999999999996
Info: NONBONDED TABLE R-SQUARED SPACING: 0.0625
Info: NONBONDED TABLE SIZE: 705 POINTS
TCL: Setting parameter alchLambda2 to 0.49999999999999994
Info: NONBONDED TABLE R-SQUARED SPACING: 0.0625
Info: NONBONDED TABLE SIZE: 705 POINTS
TCL: Running for 1500000 steps
ETITLE: TS BOND ANGLE DIHED IMPRP ELECT VDW BOUNDARY MISC KINETIC TOTAL TEMP POTENTIAL TOTALAVG TEMPAVG PRESSURE GPRESSURE VOLUME PRESSAVG GPRESSAVG
ENERGY: 0 1.4001 13.1519 4.7157 0.0000 -10507.0238 1326.1167 0.0000 0.0000 1770.8997 -7390.7397 300.3563 -9161.6394 -7390.7397 300.3563 -549.4722 -455.0668 30093.2523 -549.4722 -455.0668
ENERGY: 300000 3.7261 13.5078 3.4861 0.0000 -10642.9387 1401.3260 0.0000 0.0000 1761.9512 -7458.9415 298.8386 -9220.8927 -7436.6603 300.9814 -406.3486 -357.5458 30851.1349 -244.6758 -181.0674
ENERGY: 600000 2.6002 9.3152 4.7856 0.0000 -10832.4317 1492.7109 0.0000 0.0000 1732.4687 -7590.5511 293.8382 -9323.0198 -7460.9991 299.4855 467.8031 458.6141 29943.4975 -195.9561 -139.3059
ENERGY: 900000 4.3925 12.6979 4.3509 0.0000 -10700.1623 1395.6498 0.0000 0.0000 1809.2191 -7473.8522 306.8556 -9283.0713 -7439.5912 301.7631 -308.1785 -244.5941 30183.9343 -254.1351 -198.4917
ENERGY: 1200000 3.3185 11.1775 4.2546 0.0000 -10556.0050 1333.0031 0.0000 0.0000 1777.6374 -7426.6140 301.4991 -9204.2514 -7433.1033 301.2693 -730.3498 -629.3081 30404.5511 -211.7568 -151.8543
ENERGY: 1500000 1.0293 8.4730 4.8033 0.0000 -10689.7140 1408.4941 0.0000 0.0000 1774.9156 -7491.9987 301.0375 -9266.9143 -7440.8051 300.3904 -327.3248 -231.4411 30328.9107 -191.5758 -127.0483
TCL: Running FEP window  11: Lambda1 0.49999999999999994 Lambda2 0.5499999999999999 [dLambda 0.04999999999999999]
TCL: Setting parameter firsttimestep to 0
TCL: Setting parameter alchLambda to 0.49999999999999994
Info: NONBONDED TABLE R-SQUARED SPACING: 0.0625
Info: NONBONDED TABLE SIZE: 705 POINTS
TCL: Setting parameter alchLambda2 to 0.5499999999999999
Info: NONBONDED TABLE R-SQUARED SPACING: 0.0625
Info: NONBONDED TABLE SIZE: 705 POINTS
TCL: Running for 1500000 steps
ETITLE: TS BOND ANGLE DIHED IMPRP ELECT VDW BOUNDARY MISC KINETIC TOTAL TEMP POTENTIAL TOTALAVG TEMPAVG PRESSURE GPRESSURE VOLUME PRESSAVG GPRESSAVG
ENERGY: 0 1.0293 8.4730 4.8033 0.0000 -10689.7147 1408.4833 0.0000 0.0000 1774.0040 -7492.9218 300.8829 -9266.9258 -7492.9218 300.8829 -308.6697 -224.4158 30328.9107 -308.6697 -224.4158
ENERGY: 300000 2.3747 8.7380 5.9758 0.0000 -10726.1969 1478.7614 0.0000 0.0000 1733.0717 -7497.2752 293.9405 -9230.3469 -7472.7678 299.3785 369.1454 464.3666 30179.8517 -121.0937 -58.1203
ENERGY: 600000 2.0596 11.4240 4.6200 0.0000 -10653.5117 1448.0633 0.0000 0.0000 1817.5731 -7369.7717 308.2725 -9187.3448 -7453.9273 300.9207 544.0806 524.6001 30280.3065 -158.0954 -101.0883
ENERGY: 900000 1.7742 10.4939 7.0381 0.0000 -10696.8065 1427.6608 0.0000 0.0000 1754.7830 -7495.0566 297.6228 -9249.8396 -7460.0878 301.7108 -207.8713 -142.3530 30373.6952 -107.5503 -38.3435
ENERGY: 1200000 1.6555 11.3314 4.1103 0.0000 -10767.1761 1488.2623 0.0000 0.0000 1716.3687 -7545.4479 291.1075 -9261.8166 -7475.7368 300.7735 172.0898 255.4632 30556.8511 -24.2110 51.0592
ENERGY: 1500000 1.2339 16.4382 5.1721 0.0000 -10510.0009 1332.6650 0.0000 0.0000 1766.6792 -7387.8126 299.6405 -9154.4918 -7461.2405 301.1083 -706.6688 -644.3971 30668.6033 -114.7735 -41.5029
TCL: Running FEP window  12: Lambda1 0.5499999999999999 Lambda2 0.6    [dLambda 0.050000000000000044]
TCL: Setting parameter firsttimestep to 0
TCL: Setting parameter alchLambda to 0.5499999999999999
Info: NONBONDED TABLE R-SQUARED SPACING: 0.0625
Info: NONBONDED TABLE SIZE: 705 POINTS
TCL: Setting parameter alchLambda2 to 0.6
Info: NONBONDED TABLE R-SQUARED SPACING: 0.0625
Info: NONBONDED TABLE SIZE: 705 POINTS
TCL: Running for 1500000 steps
ETITLE: TS BOND ANGLE DIHED IMPRP ELECT VDW BOUNDARY MISC KINETIC TOTAL TEMP POTENTIAL TOTALAVG TEMPAVG PRESSURE GPRESSURE VOLUME PRESSAVG GPRESSAVG
ENERGY: 0 1.2339 16.4382 5.1721 0.0000 -10509.7887 1332.6183 0.0000 0.0000 1765.7989 -7388.5274 299.4912 -9154.3263 -7388.5274 299.4912 -733.9700 -635.4623 30668.6033 -733.9700 -635.4623
ENERGY: 300000 2.6385 8.0577 5.1180 0.0000 -10608.1749 1400.0048 0.0000 0.0000 1757.7123 -7434.6436 298.1197 -9192.3560 -7427.0010 297.6034 -82.5669 -50.5146 30651.7028 -420.6768 -376.3982
ENERGY: 600000 2.3336 12.5310 5.1741 0.0000 -10800.3850 1482.1872 0.0000 0.0000 1764.4955 -7533.6637 299.2701 -9298.1591 -7449.8470 299.4773 298.1965 338.8056 30315.1776 -244.0883 -213.4885
ENERGY: 900000 1.6514 14.9218 4.4272 0.0000 -10773.1227 1472.8376 0.0000 0.0000 1774.2286 -7505.0562 300.9209 -9279.2848 -7453.4780 299.9439 322.5272 335.2323 30325.9923 -130.1319 -91.7658
ENERGY: 1200000 1.1624 13.1442 5.7916 0.0000 -10665.6866 1423.0845 0.0000 0.0000 1786.1104 -7436.3935 302.9362 -9222.5039 -7441.9609 301.4821 -122.2523 -44.3033 30580.9264 -231.9813 -182.6192
ENERGY: 1500000 4.5748 11.4670 5.4140 0.0000 -10566.3584 1287.7195 0.0000 0.0000 1783.4398 -7473.7434 302.4832 -9257.1832 -7449.6521 301.1142 -1233.5962 -1237.3118 30533.8703 -231.8197 -180.1513
TCL: Running FEP window  13: Lambda1 0.6    Lambda2 0.65   [dLambda 0.050000000000000044]
TCL: Setting parameter firsttimestep to 0
TCL: Setting parameter alchLambda to 0.6
Info: NONBONDED TABLE R-SQUARED SPACING: 0.0625
Info: NONBONDED TABLE SIZE: 705 POINTS
TCL: Setting parameter alchLambda2 to 0.65
Info: NONBONDED TABLE R-SQUARED SPACING: 0.0625
Info: NONBONDED TABLE SIZE: 705 POINTS
TCL: Running for 1500000 steps
ETITLE: TS BOND ANGLE DIHED IMPRP ELECT VDW BOUNDARY MISC KINETIC TOTAL TEMP POTENTIAL TOTALAVG TEMPAVG PRESSURE GPRESSURE VOLUME PRESSAVG GPRESSAVG
ENERGY: 0 4.5748 11.4670 5.4140 0.0000 -10566.2102 1287.5874 0.0000 0.0000 1782.5652 -7474.6019 302.3349 -9257.1671 -7474.6019 302.3349 -1311.0309 -1226.2016 30533.8703 -1311.0309 -1226.2016
ENERGY: 300000 3.7565 13.9363 4.0445 0.0000 -10595.1355 1403.4706 0.0000 0.0000 1849.7861 -7320.1415 313.7360 -9169.9275 -7432.8582 305.4476 -105.8237 -8.7232 30557.2282 -293.7179 -208.3894
ENERGY: 600000 3.2597 6.2050 5.7276 0.0000 -10573.8197 1358.8143 0.0000 0.0000 1715.3620 -7484.4510 290.9368 -9199.8130 -7431.4412 303.5688 -761.6922 -709.3583 30723.1557 -174.8484 -103.6827
ENERGY: 900000 1.0142 8.3574 4.8403 0.0000 -10683.0952 1465.2358 0.0000 0.0000 1759.2010 -7444.4464 298.3722 -9203.6474 -7427.2327 303.7426 769.7324 810.2457 29791.6516 -127.5010 -58.4089
ENERGY: 1200000 3.4013 12.5014 3.1655 0.0000 -10625.8655 1376.9628 0.0000 0.0000 1768.6116 -7461.2228 299.9683 -9229.8344 -7430.7769 304.0919 -662.5172 -526.1353 30563.1332 -191.6514 -118.8181
ENERGY: 1500000 2.0960 6.3650 5.2015 0.0000 -10711.9252 1415.3647 0.0000 0.0000 1795.5047 -7487.3933 304.5295 -9282.8979 -7444.2419 303.3405 -271.0245 -219.2191 30393.4391 -71.4578 2.2925
TCL: Running FEP window  14: Lambda1 0.65   Lambda2 0.7000000000000001 [dLambda 0.050000000000000044]
TCL: Setting parameter firsttimestep to 0
TCL: Setting parameter alchLambda to 0.65
Info: NONBONDED TABLE R-SQUARED SPACING: 0.0625
Info: NONBONDED TABLE SIZE: 705 POINTS
TCL: Setting parameter alchLambda2 to 0.7000000000000001
Info: NONBONDED TABLE R-SQUARED SPACING: 0.0625
Info: NONBONDED TABLE SIZE: 705 POINTS
TCL: Running for 1500000 steps
ETITLE: TS BOND ANGLE DIHED IMPRP ELECT VDW BOUNDARY MISC KINETIC TOTAL TEMP POTENTIAL TOTALAVG TEMPAVG PRESSURE GPRESSURE VOLUME PRESSAVG GPRESSAVG
ENERGY: 0 2.0960 6.3650 5.2015 0.0000 -10711.7854 1415.5815 0.0000 0.0000 1794.5774 -7487.9640 304.3722 -9282.5414 -7487.9640 304.3722 -298.4028 -204.4113 30393.4391 -298.4028 -204.4113
ENERGY: 300000 4.7209 9.0565 7.7846 0.0000 -10785.0251 1564.5668 0.0000 0.0000 1747.6935 -7451.2028 296.4204 -9198.8963 -7463.6464 300.9451 1113.4434 1180.0516 30287.3227 99.9683 161.2400
ENERGY: 600000 1.2924 13.0672 4.8219 0.0000 -10729.0440 1449.0813 0.0000 0.0000 1725.1391 -7535.6421 292.5950 -9260.7812 -7472.5191 299.0601 -61.9520 -5.4628 30422.3317 27.9915 104.4161
ENERGY: 900000 1.0886 10.1096 6.2977 0.0000 -10682.4682 1453.8559 0.0000 0.0000 1742.7408 -7468.3757 295.5804 -9211.1164 -7467.8185 299.2041 262.0553 264.9656 30436.8708 57.6160 120.2663
ENERGY: 1200000 1.1672 9.9799 3.9520 0.0000 -10711.6389 1454.6775 0.0000 0.0000 1772.0182 -7469.8442 300.5460 -9241.8624 -7463.5156 300.2634 366.8440 418.3560 30220.2824 18.2887 78.7141
ENERGY: 1500000 1.8079 9.3800 3.7674 0.0000 -10738.9651 1425.0840 0.0000 0.0000 1787.7501 -7511.1757 303.2143 -9298.9258 -7465.8059 300.5281 -202.1502 -110.2461 30336.0532 -9.9139 55.1751
TCL: Running FEP window  15: Lambda1 0.7000000000000001 Lambda2 0.7500000000000001 [dLambda 0.050000000000000044]
TCL: Setting parameter firsttimestep to 0
TCL: Setting parameter alchLambda to 0.7000000000000001
Info: NONBONDED TABLE R-SQUARED SPACING: 0.0625
Info: NONBONDED TABLE SIZE: 705 POINTS
TCL: Setting parameter alchLambda2 to 0.7500000000000001
Info: NONBONDED TABLE R-SQUARED SPACING: 0.0625
Info: NONBONDED TABLE SIZE: 705 POINTS
TCL: Running for 1500000 steps
ETITLE: TS BOND ANGLE DIHED IMPRP ELECT VDW BOUNDARY MISC KINETIC TOTAL TEMP POTENTIAL TOTALAVG TEMPAVG PRESSURE GPRESSURE VOLUME PRESSAVG GPRESSAVG
ENERGY: 0 1.8079 9.3800 3.7674 0.0000 -10738.9322 1424.7332 0.0000 0.0000 1786.9030 -7512.3406 303.0706 -9299.2436 -7512.3406 303.0706 -178.0820 -99.5449 30336.0532 -178.0820 -99.5449
ENERGY: 300000 1.6309 12.4092 3.7616 0.0000 -10601.4388 1410.7389 0.0000 0.0000 1756.5411 -7416.3572 297.9210 -9172.8983 -7477.9590 300.1068 106.5326 111.7292 30422.8004 -133.3836 -86.5675
ENERGY: 600000 0.6104 7.5762 3.9838 0.0000 -10676.4194 1375.1763 0.0000 0.0000 1729.5990 -7559.4736 293.3515 -9289.0726 -7484.7335 298.8051 -645.9650 -574.0668 30782.9471 -296.8410 -236.8096
ENERGY: 900000 1.5115 11.8374 3.7003 0.0000 -10829.2243 1511.1963 0.0000 0.0000 1822.5446 -7478.4343 309.1157 -9300.9789 -7473.1817 300.9018 303.1876 404.2818 30645.7613 -160.5491 -100.4906
ENERGY: 1200000 3.4684 9.7755 3.3174 0.0000 -10724.7321 1387.0996 0.0000 0.0000 1767.7522 -7553.3190 299.8225 -9321.0712 -7476.8073 300.4337 -658.1357 -617.1482 30213.9127 -264.2565 -198.8566
ENERGY: 1500000 1.6683 11.1814 6.5643 0.0000 -10753.3905 1513.7728 0.0000 0.0000 1730.2197 -7489.9840 293.4567 -9220.2037 -7475.4371 299.7956 791.1781 831.7503 30278.8777 -132.4194 -74.4521
TCL: Running FEP window  16: Lambda1 0.7500000000000001 Lambda2 0.8000000000000002 [dLambda 0.050000000000000044]
TCL: Setting parameter firsttimestep to 0
TCL: Setting parameter alchLambda to 0.7500000000000001
Info: NONBONDED TABLE R-SQUARED SPACING: 0.0625
Info: NONBONDED TABLE SIZE: 705 POINTS
TCL: Setting parameter alchLambda2 to 0.8000000000000002
Info: NONBONDED TABLE R-SQUARED SPACING: 0.0625
Info: NONBONDED TABLE SIZE: 705 POINTS
TCL: Running for 1500000 steps
ETITLE: TS BOND ANGLE DIHED IMPRP ELECT VDW BOUNDARY MISC KINETIC TOTAL TEMP POTENTIAL TOTALAVG TEMPAVG PRESSURE GPRESSURE VOLUME PRESSAVG GPRESSAVG
ENERGY: 0 1.6683 11.1814 6.5643 0.0000 -10753.4511 1513.4585 0.0000 0.0000 1729.2918 -7491.2868 293.2994 -9220.5786 -7491.2868 293.2994 755.9780 836.5675 30278.8777 755.9780 836.5675
ENERGY: 300000 1.1508 12.8409 5.7627 0.0000 -10715.9124 1458.6674 0.0000 0.0000 1808.2532 -7429.2374 306.6917 -9237.4906 -7483.4895 300.2066 239.5358 319.5338 30420.8133 508.2517 574.6771
ENERGY: 600000 1.7480 12.1358 5.5916 0.0000 -10741.5153 1483.0079 0.0000 0.0000 1798.1153 -7440.9167 304.9723 -9239.0320 -7475.8712 302.6833 432.0889 522.8045 30309.0099 373.4330 430.9762
ENERGY: 900000 3.1340 9.8027 4.5554 0.0000 -10681.2376 1413.5404 0.0000 0.0000 1749.0181 -7501.1869 296.6451 -9250.2051 -7485.6388 300.5947 -329.4223 -285.1701 30622.4239 250.0033 309.2102
ENERGY: 1200000 2.2897 13.5218 4.1029 0.0000 -10818.7610 1463.2496 0.0000 0.0000 1776.8701 -7558.7269 301.3690 -9335.5970 -7480.4198 300.7100 111.1574 118.9551 29979.0280 219.1715 272.1827
ENERGY: 1500000 6.6691 11.2937 4.2317 0.0000 -10576.9550 1359.6116 0.0000 0.0000 1784.6428 -7410.5062 302.6873 -9195.1490 -7480.3390 300.6041 -576.3792 -543.9730 30708.2338 104.2071 154.0738
TCL: Running FEP window  17: Lambda1 0.8000000000000002 Lambda2 0.8500000000000002 [dLambda 0.050000000000000044]
TCL: Setting parameter firsttimestep to 0
TCL: Setting parameter alchLambda to 0.8000000000000002
Info: NONBONDED TABLE R-SQUARED SPACING: 0.0625
Info: NONBONDED TABLE SIZE: 705 POINTS
TCL: Setting parameter alchLambda2 to 0.8500000000000002
Info: NONBONDED TABLE R-SQUARED SPACING: 0.0625
Info: NONBONDED TABLE SIZE: 705 POINTS
TCL: Running for 1500000 steps
ETITLE: TS BOND ANGLE DIHED IMPRP ELECT VDW BOUNDARY MISC KINETIC TOTAL TEMP POTENTIAL TOTALAVG TEMPAVG PRESSURE GPRESSURE VOLUME PRESSAVG GPRESSAVG
ENERGY: 0 6.6691 11.2937 4.2317 0.0000 -10576.8596 1359.8562 0.0000 0.0000 1783.7781 -7411.0309 302.5406 -9194.8090 -7411.0309 302.5406 -599.6384 -523.9230 30708.2338 -599.6384 -523.9230
ENERGY: 300000 3.3464 9.7991 3.8619 0.0000 -10658.7380 1396.8347 0.0000 0.0000 1744.3376 -7500.5583 295.8512 -9244.8960 -7453.9382 301.5037 -282.8173 -215.6270 30529.2242 -141.0383 -62.0658
ENERGY: 600000 5.3174 7.6886 5.1562 0.0000 -10748.2056 1426.6895 0.0000 0.0000 1808.2226 -7495.1313 306.6866 -9303.3539 -7469.8513 303.4996 -458.8782 -369.2079 30838.0970 -149.8120 -70.0263
ENERGY: 900000 2.7529 7.5626 4.2062 0.0000 -10646.4193 1450.8708 0.0000 0.0000 1821.1680 -7359.8589 308.8822 -9181.0269 -7461.4627 304.9278 555.2990 595.3979 30534.8654 -72.2310 7.8662
ENERGY: 1200000 1.4486 12.5604 8.2733 0.0000 -10702.8213 1461.4648 0.0000 0.0000 1726.5192 -7492.5551 292.8291 -9219.0742 -7465.8941 303.3343 172.5421 250.8426 30453.7124 -63.4476 15.6043
ENERGY: 1500000 1.1988 10.5214 4.4493 0.0000 -10728.0238 1470.3207 0.0000 0.0000 1808.0995 -7433.4341 306.6657 -9241.5336 -7466.9659 303.2084 406.7476 420.3060 30475.7894 -67.8100 7.6592
TCL: Running FEP window  18: Lambda1 0.8500000000000002 Lambda2 0.9000000000000002 [dLambda 0.050000000000000044]
TCL: Setting parameter firsttimestep to 0
TCL: Setting parameter alchLambda to 0.8500000000000002
Info: NONBONDED TABLE R-SQUARED SPACING: 0.0625
Info: NONBONDED TABLE SIZE: 705 POINTS
TCL: Setting parameter alchLambda2 to 0.9000000000000002
Info: NONBONDED TABLE R-SQUARED SPACING: 0.0625
Info: NONBONDED TABLE SIZE: 705 POINTS
TCL: Running for 1500000 steps
ETITLE: TS BOND ANGLE DIHED IMPRP ELECT VDW BOUNDARY MISC KINETIC TOTAL TEMP POTENTIAL TOTALAVG TEMPAVG PRESSURE GPRESSURE VOLUME PRESSAVG GPRESSAVG
ENERGY: 0 1.1988 10.5214 4.4493 0.0000 -10728.4053 1469.6806 0.0000 0.0000 1807.2442 -7435.3110 306.5206 -9242.5553 -7435.3110 306.5206 337.4869 426.2601 30475.7894 337.4869 426.2601
ENERGY: 300000 1.7722 16.1969 3.6590 0.0000 -10731.1040 1478.2465 0.0000 0.0000 1784.2496 -7446.9798 302.6206 -9231.2294 -7483.2922 303.3054 549.3974 636.6204 30321.5834 274.5166 358.0388
ENERGY: 600000 1.4712 12.9815 3.1313 0.0000 -10484.0697 1303.2833 0.0000 0.0000 1709.3189 -7453.8835 289.9118 -9163.2024 -7477.7786 301.1758 -920.4495 -822.4399 30950.6822 79.0587 151.8538
ENERGY: 900000 4.8263 12.3271 4.6725 0.0000 -10875.8333 1570.9922 0.0000 0.0000 1738.7666 -7544.2486 294.9064 -9283.0152 -7485.3104 300.6403 932.0301 1056.8833 30212.4836 133.2749 199.5285
ENERGY: 1200000 1.1427 12.3248 3.4704 0.0000 -10792.9477 1525.6500 0.0000 0.0000 1791.5851 -7458.7747 303.8647 -9250.3598 -7484.9422 299.9780 790.0975 885.5702 30397.8414 105.2855 167.6015
ENERGY: 1500000 1.5929 13.7257 5.0826 0.0000 -10710.2178 1394.8871 0.0000 0.0000 1785.9602 -7508.9692 302.9107 -9294.9294 -7491.1047 299.9684 -383.7974 -322.7955 30333.1065 14.0822 78.6106
TCL: Running FEP window  19: Lambda1 0.9000000000000002 Lambda2 0.9500000000000003 [dLambda 0.050000000000000044]
TCL: Setting parameter firsttimestep to 0
TCL: Setting parameter alchLambda to 0.9000000000000002
Info: NONBONDED TABLE R-SQUARED SPACING: 0.0625
Info: NONBONDED TABLE SIZE: 705 POINTS
TCL: Setting parameter alchLambda2 to 0.9500000000000003
Info: NONBONDED TABLE R-SQUARED SPACING: 0.0625
Info: NONBONDED TABLE SIZE: 705 POINTS
TCL: Running for 1500000 steps
ETITLE: TS BOND ANGLE DIHED IMPRP ELECT VDW BOUNDARY MISC KINETIC TOTAL TEMP POTENTIAL TOTALAVG TEMPAVG PRESSURE GPRESSURE VOLUME PRESSAVG GPRESSAVG
ENERGY: 0 1.5929 13.7257 5.0826 0.0000 -10710.3758 1395.3099 0.0000 0.0000 1785.0333 -7509.6314 302.7535 -9294.6647 -7509.6314 302.7535 -376.9423 -308.3573 30333.1065 -376.9423 -308.3573
ENERGY: 300000 1.8465 12.3907 6.1955 0.0000 -10725.5841 1486.5946 0.0000 0.0000 1690.6375 -7527.9192 286.7433 -9218.5568 -7495.1701 298.0411 259.6481 320.7687 30738.9955 78.6188 129.6074
ENERGY: 600000 1.2279 10.2260 5.7182 0.0000 -10685.5148 1481.9300 0.0000 0.0000 1822.2448 -7364.1678 309.0648 -9186.4126 -7450.0290 300.0095 489.3527 509.3836 30861.3241 -75.4704 -26.6549
ENERGY: 900000 5.6280 6.7217 4.4744 0.0000 -10834.8833 1511.6216 0.0000 0.0000 1706.2166 -7600.2210 289.3857 -9306.4376 -7476.5172 297.4939 389.3111 463.0123 30183.9435 -9.5569 45.8301
ENERGY: 1200000 1.7679 8.0407 6.9820 0.0000 -10575.8413 1409.9649 0.0000 0.0000 1800.4532 -7348.6326 305.3688 -9149.0857 -7472.6991 298.3019 51.3481 96.7845 30818.8820 57.9915 110.6430
ENERGY: 1500000 5.2361 6.9645 7.5045 0.0000 -10640.1875 1367.1618 0.0000 0.0000 1781.7179 -7471.6028 302.1912 -9253.3206 -7466.1701 299.0955 -584.5689 -588.8673 30404.3908 112.4749 161.1557
TCL: Running FEP window  20: Lambda1 0.9500000000000003 Lambda2 1.0    [dLambda 0.04999999999999971]
TCL: Setting parameter firsttimestep to 0
TCL: Setting parameter alchLambda to 0.9500000000000003
Info: NONBONDED TABLE R-SQUARED SPACING: 0.0625
Info: NONBONDED TABLE SIZE: 705 POINTS
TCL: Setting parameter alchLambda2 to 1.0
Info: NONBONDED TABLE R-SQUARED SPACING: 0.0625
Info: NONBONDED TABLE SIZE: 705 POINTS
TCL: Running for 1500000 steps
ETITLE: TS BOND ANGLE DIHED IMPRP ELECT VDW BOUNDARY MISC KINETIC TOTAL TEMP POTENTIAL TOTALAVG TEMPAVG PRESSURE GPRESSURE VOLUME PRESSAVG GPRESSAVG
ENERGY: 0 5.2361 6.9645 7.5045 0.0000 -10640.3930 1366.9170 0.0000 0.0000 1780.8308 -7472.9400 302.0407 -9253.7709 -7472.9400 302.0407 -649.3993 -579.5570 30404.3908 -649.3993 -579.5570
ENERGY: 300000 1.3010 9.0481 4.2650 0.0000 -10673.7850 1422.8304 0.0000 0.0000 1804.1502 -7432.1903 305.9959 -9236.3405 -7448.9790 300.7658 291.4727 387.1848 30035.0318 -227.9081 -128.2527
ENERGY: 600000 0.6401 9.8140 3.8573 0.0000 -10738.1565 1452.6145 0.0000 0.0000 1771.4242 -7499.8065 300.4453 -9271.2306 -7470.2661 300.6625 597.4630 593.9976 30052.7106 -111.2934 -38.7783
ENERGY: 900000 0.8291 12.7819 6.5764 0.0000 -10699.0906 1462.1031 0.0000 0.0000 1759.2578 -7457.5423 298.3818 -9216.8002 -7460.1543 300.9755 284.0672 402.5283 30348.2221 -112.5519 -33.7813
ENERGY: 1200000 2.1147 15.4788 4.6428 0.0000 -10440.8126 1224.2204 0.0000 0.0000 1715.0476 -7479.3083 290.8835 -9194.3559 -7466.8012 300.2675 -1679.7298 -1652.8745 30865.1331 -279.8435 -202.8700
ENERGY: 1500000 2.9356 10.1616 3.1470 0.0000 -10739.0478 1380.0305 0.0000 0.0000 1762.4398 -7580.3332 298.9215 -9342.7730 -7475.4186 301.1479 -862.3911 -825.7000 30739.5533 -259.7432 -187.4372
TCL: Exiting due to exit command.
