Info: SIMULATION PARAMETERS:
Info: TIMESTEP               2
Info: NUMBER OF STEPS        0
Info: STEPS PER CYCLE        10
Info: PERIODIC CELL BASIS 1  30.2362 0 0
Info: PERIODIC CELL BASIS 2  0 31.3005 0
Info: PERIODIC CELL BASIS 3  0 0 32.2525
Info: PERIODIC CELL CENTER   0 0 0
Info: WRAPPING WATERS AROUND PERIODIC BOUNDARIES ON OUTPUT.
Info: WRAPPING ALL CLUSTERS AROUND PERIODIC BOUNDARIES ON OUTPUT.
Info: FIRST LDB TIMESTEP     50
Info: LAST LDB TIMESTEP     -1
Info: HOM BACKGROUND SCALING 1
Info: PME BACKGROUND SCALING 1
Info: MIN ATOMS PER PATCH    40
Info: EMPTY PATCH LOAD       40 ATOMS
Info: VELOCITY FILE          mobley_3709920_equil.vel
Info: CENTER OF MASS MOVING INITIALLY? NO
Info: DIELECTRIC             1
Info: EXCLUDE                SCALED ONE-FOUR
Info: 1-4 ELECTROSTATICS SCALED BY 0.833333
Info: MODIFIED 1-4 VDW PARAMETERS WILL BE USED
Info: DCD FILENAME           mobley_3709920_prod.dcd
Info: DCD FREQUENCY          100000
Info: DCD FIRST STEP         100000
Info: DCD FILE WILL CONTAIN UNIT CELL DATA
Info: XST FILENAME           mobley_3709920_prod.xst
Info: XST FREQUENCY          100000
Info: NO VELOCITY DCD OUTPUT
Info: NO FORCE DCD OUTPUT
Info: OUTPUT FILENAME        mobley_3709920_prod
Info: BINARY OUTPUT FILES WILL BE USED
Info: RESTART FILENAME       mobley_3709920_prod.restart
Info: RESTART FREQUENCY      100000
Info: BINARY RESTART FILES WILL BE USED
Info: CUTOFF                 9
Info: PAIRLIST DISTANCE      11
Info: PAIRLIST SHRINK RATE   0.01
Info: PAIRLIST GROW RATE     0.01
Info: PAIRLIST TRIGGER       0.3
Info: PAIRLISTS PER CYCLE    2
Info: PAIRLISTS ENABLED
Info: MARGIN                 2
Info: HYDROGEN GROUP CUTOFF  2.5
Info: PATCH DIMENSION        15.5
Info: ENERGY OUTPUT STEPS    100000
Info: ENERGY EVALUATION STEPS    100000
Info: OUTPUT ENERGY PRECISION 4
Info: CROSSTERM ENERGY INCLUDED IN DIHEDRAL
Info: TIMING OUTPUT STEPS    1000000
Info: PRESSURE OUTPUT STEPS  100000
Info: ALCHEMICAL FEP ON
Info: FEP CURRENT LAMBDA VALUE     1
Info: FEP COMPARISON LAMBDA VALUE  0.95
Info: FEP INTRA-ALCHEMICAL NON-BONDED INTERACTIONS WILL BE RETAINED
Info: FEP INTRA-ALCHEMICAL BONDED INTERACTIONS WILL BE RETAINED
Info: FEP VDW SHIFTING COEFFICIENT 5
Info: FEP ELEC. ACTIVE FOR ANNIHILATED PARTICLES BETWEEN LAMBDA = 0 AND LAMBDA = 0.5
Info: FEP ELEC. ACTIVE FOR EXNIHILATED PARTICLES BETWEEN LAMBDA = 0.5 AND LAMBDA = 1
Info: FEP VDW ACTIVE FOR ANNIHILATED PARTICLES BETWEEN LAMBDA = 0 AND LAMBDA = 1
Info: FEP VDW ACTIVE FOR EXNIHILATED PARTICLES BETWEEN LAMBDA = 0 AND LAMBDA = 1
Info: FEP BOND ACTIVE FOR ANNIHILATED PARTICLES BETWEEN LAMBDA = 1 AND LAMBDA = 1
Info: FEP BOND ACTIVE FOR EXNIHILATED PARTICLES BETWEEN LAMBDA = 0 AND LAMBDA = 0
Info: LANGEVIN DYNAMICS ACTIVE
Info: LANGEVIN TEMPERATURE   300
Info: LANGEVIN USING BBK INTEGRATOR
Info: LANGEVIN DAMPING COEFFICIENT IS 1 INVERSE PS
Info: LANGEVIN DYNAMICS APPLIED TO HYDROGENS
Info: LANGEVIN PISTON PRESSURE CONTROL ACTIVE
Info:        TARGET PRESSURE IS 1.01325 BAR
Info:     OSCILLATION PERIOD IS 50 FS
Info:             DECAY TIME IS 25 FS
Info:     PISTON TEMPERATURE IS 300 K
Info:       PRESSURE CONTROL IS GROUP-BASED
Info:    INITIAL STRAIN RATE IS 4.05183e-05 4.05183e-05 4.05183e-05
Info:       CELL FLUCTUATION IS ISOTROPIC
Info: PARTICLE MESH EWALD (PME) ACTIVE
Info: PME TOLERANCE               1e-06
Info: PME EWALD COEFFICIENT       0.348832
Info: PME INTERPOLATION ORDER     4
Info: PME GRID DIMENSIONS         32 32 36
Info: PME MAXIMUM GRID SPACING    1
Info: PME CALCULATION WILL BE PERFORMED ON GPU
Info: FULL ELECTROSTATIC EVALUATION FREQUENCY      2
Info: USING VERLET I (r-RESPA) MTS SCHEME.
Info: C1 SPLITTING OF LONG RANGE ELECTROSTATICS
Info: PLACING ATOMS IN PATCHES BY HYDROGEN GROUPS
Info: RIGID BONDS TO HYDROGEN : ALL
Info:         ERROR TOLERANCE : 1e-08
Info:          MAX ITERATIONS : 100
Info: RIGID WATER USING SETTLE ALGORITHM
Info: RANDOM NUMBER SEED     1744070943
Info: USE HYDROGEN BONDS?    NO
Info: Using AMBER format force field!
Info: AMBER PARM FILE        mobley_3709920.prmtop
Info: COORDINATE PDB         mobley_3709920.pdb
Info: Exclusions will be read from PARM file!
Info: SCNB (VDW SCALING)     2
Info: USING ARITHMETIC MEAN TO COMBINE L-J SIGMA PARAMETERS
Info: BINARY COORDINATES     mobley_3709920_equil.coor
Info: SUMMARY OF PARAMETERS:
Info: 7 BONDS
Info: 9 ANGLES
Info:   9 HARMONIC
Info:   0 COSINE-BASED
Info: 11 DIHEDRAL
Info: 0 IMPROPER
Info: 0 CROSSTERM
Info: 0 VDW
Info: 21 VDW_PAIRS
Info: 0 NBTHOLE_PAIRS
Info: To read alchdata from file: mobley_3709920.pdb
Info: To read alchflag data from column: 5
Info: STRUCTURE SUMMARY:
Info: 2994 ATOMS
Info: 2993 BONDS
Info: 48 ANGLES
Info: 78 DIHEDRALS
Info: 0 IMPROPERS
Info: 0 CROSSTERMS
Info: 3105 EXCLUSIONS
Info: 2985 RIGID BONDS
Info: ALCH: 0 ATOMS TO DISAPPEAR IN FINAL STATE
Info: ALCH: 27 ATOMS TO APPEAR IN FINAL STATE
Info: 5997 DEGREES OF FREEDOM
Info: 998 HYDROGEN GROUPS
Info: 4 ATOMS IN LARGEST HYDROGEN GROUP
Info: 998 MIGRATION GROUPS
Info: 4 ATOMS IN LARGEST MIGRATION GROUP
Info: TOTAL MASS = 17944.1 amu
Info: TOTAL CHARGE = -0.000100017 e
Info: MASS DENSITY = 0.976198 g/cm^3
Info: ATOM DENSITY = 0.0980866 atoms/A^3
Info: ADDED 0 IMPLICIT EXCLUSIONS
Info: NONBONDED TABLE R-SQUARED SPACING: 0.0625
Info: NONBONDED TABLE SIZE: 705 POINTS
Info: REMOVING COM VELOCITY 0.0385072 0.224991 0.253733
Info: Use 3D box decompostion in PME FFT.
Info: Updated CUDA force table with 4096 elements.
Info: Updated CUDA LJ table with 6 x 6 elements.
Info: Found 30 unique exclusion lists needing 112 bytes
TCL: Running for 1500000 steps
ETITLE: TS BOND ANGLE DIHED IMPRP ELECT VDW BOUNDARY MISC KINETIC TOTAL TEMP POTENTIAL TOTALAVG TEMPAVG PRESSURE GPRESSURE VOLUME PRESSAVG GPRESSAVG
ENERGY: 0 1.5226 10.9065 9.0305 0.0000 -10768.8976 1464.4216 0.0000 0.0000 1774.0329 -7508.9835 297.7269 -9283.0165 -7508.9835 297.7269 513.6900 583.3605 30524.0416 513.6900 583.3605
ENERGY: 300000 1.8432 9.7014 7.2939 0.0000 -10795.8696 1490.6562 0.0000 0.0000 1816.8377 -7469.5372 304.9106 -9286.3749 -7493.2723 303.0853 564.2624 590.9833 30582.7539 261.1168 314.7077
ENERGY: 600000 1.1201 9.7470 6.7674 0.0000 -10859.2003 1516.4655 0.0000 0.0000 1749.9819 -7575.1182 293.6905 -9325.1001 -7522.2268 301.0524 629.2083 659.3143 30616.7516 253.1243 296.6369
ENERGY: 900000 1.7589 12.1644 5.0184 0.0000 -10676.2570 1388.8905 0.0000 0.0000 1776.4261 -7491.9986 298.1285 -9268.4248 -7503.3531 302.4908 -247.4923 -187.2431 30863.9896 129.9647 174.1584
ENERGY: 1200000 2.5139 12.6290 6.0643 0.0000 -10737.7458 1413.4683 0.0000 0.0000 1803.7800 -7499.2904 302.7191 -9303.0703 -7499.2591 302.4719 -239.4761 -220.6854 30929.7290 120.4193 164.3412
ENERGY: 1500000 1.9375 10.6031 9.0913 0.0000 -10976.3103 1603.4790 0.0000 0.0000 1793.9410 -7557.2585 301.0679 -9351.1995 -7512.9824 301.6645 1198.7947 1235.7001 30812.6244 144.0888 189.7711
TCL: Running FEP window   2: Lambda1 0.95   Lambda2 0.8999999999999999 [dLambda -0.050000000000000044]
TCL: Setting parameter firsttimestep to 0
TCL: Setting parameter alchLambda to 0.95
Info: NONBONDED TABLE R-SQUARED SPACING: 0.0625
Info: NONBONDED TABLE SIZE: 705 POINTS
TCL: Setting parameter alchLambda2 to 0.8999999999999999
Info: NONBONDED TABLE R-SQUARED SPACING: 0.0625
Info: NONBONDED TABLE SIZE: 705 POINTS
TCL: Running for 1500000 steps
ETITLE: TS BOND ANGLE DIHED IMPRP ELECT VDW BOUNDARY MISC KINETIC TOTAL TEMP POTENTIAL TOTALAVG TEMPAVG PRESSURE GPRESSURE VOLUME PRESSAVG GPRESSAVG
ENERGY: 0 1.9375 10.6031 9.0913 0.0000 -10976.2955 1604.2580 0.0000 0.0000 1793.0557 -7557.3499 300.9194 -9350.4057 -7557.3499 300.9194 1133.5029 1224.0356 30812.6244 1133.5029 1224.0356
ENERGY: 300000 3.8534 15.2625 8.8028 0.0000 -10853.2600 1507.9054 0.0000 0.0000 1784.8389 -7532.5970 299.5404 -9317.4359 -7554.5162 298.6542 469.4282 510.1416 30908.3151 237.2821 324.2701
ENERGY: 600000 5.6752 17.2478 6.7773 0.0000 -10976.2625 1549.4186 0.0000 0.0000 1783.4425 -7613.7011 299.3060 -9397.1436 -7536.8659 299.9161 953.7366 997.7906 30084.6977 205.7600 280.8758
ENERGY: 900000 4.2943 12.4220 5.6862 0.0000 -10749.8446 1390.2275 0.0000 0.0000 1780.6548 -7556.5598 298.8382 -9337.2146 -7529.2970 300.8565 -668.6845 -592.8712 30886.8284 103.8396 176.8870
ENERGY: 1200000 1.2523 13.9012 6.4606 0.0000 -10779.3626 1432.7775 0.0000 0.0000 1809.2503 -7515.7207 303.6372 -9324.9710 -7535.0464 300.2187 16.7682 30.2111 30703.5051 25.0580 88.4136
ENERGY: 1500000 1.1873 15.8615 8.9234 0.0000 -10897.7477 1503.2242 0.0000 0.0000 1707.8034 -7660.7480 286.6119 -9368.5514 -7537.0381 299.6407 561.7869 645.1924 30297.4000 136.3790 203.2140
TCL: Running FEP window   3: Lambda1 0.8999999999999999 Lambda2 0.8499999999999999 [dLambda -0.050000000000000044]
TCL: Setting parameter firsttimestep to 0
TCL: Setting parameter alchLambda to 0.8999999999999999
Info: NONBONDED TABLE R-SQUARED SPACING: 0.0625
Info: NONBONDED TABLE SIZE: 705 POINTS
TCL: Setting parameter alchLambda2 to 0.8499999999999999
Info: NONBONDED TABLE R-SQUARED SPACING: 0.0625
Info: NONBONDED TABLE SIZE: 705 POINTS
TCL: Running for 1500000 steps
ETITLE: TS BOND ANGLE DIHED IMPRP ELECT VDW BOUNDARY MISC KINETIC TOTAL TEMP POTENTIAL TOTALAVG TEMPAVG PRESSURE GPRESSURE VOLUME PRESSAVG GPRESSAVG
ENERGY: 0 1.1873 15.8615 8.9234 0.0000 -10897.6033 1503.8173 0.0000 0.0000 1706.8835 -7660.9303 286.4575 -9367.8138 -7660.9303 286.4575 543.4226 642.5799 30297.4000 543.4226 642.5799
ENERGY: 300000 0.8488 9.3648 5.7902 0.0000 -10847.0995 1489.5550 0.0000 0.0000 1769.0804 -7572.4602 296.8957 -9341.5406 -7599.2214 297.4428 702.3386 701.0254 30287.2634 336.8434 405.8277
ENERGY: 600000 1.3160 13.8690 5.9679 0.0000 -10678.3803 1331.3402 0.0000 0.0000 1781.3685 -7544.5187 298.9580 -9325.8873 -7587.1246 296.1199 -942.5887 -889.2992 31044.9450 -136.7327 -63.3139
ENERGY: 900000 8.5633 12.6045 6.6810 0.0000 -10704.5345 1432.3298 0.0000 0.0000 1766.2224 -7478.1335 296.4161 -9244.3559 -7559.0741 298.7838 120.3197 103.5659 31071.0515 -115.8542 -60.9076
ENERGY: 1200000 4.0200 12.1400 9.3630 0.0000 -10673.9541 1334.7071 0.0000 0.0000 1807.4912 -7506.2329 303.3420 -9313.7241 -7556.0414 297.9006 -773.9152 -705.8976 30429.4393 -269.5451 -217.9554
ENERGY: 1500000 2.8306 10.0272 8.8952 0.0000 -10840.3793 1469.8138 0.0000 0.0000 1788.1974 -7560.6151 300.1040 -9348.8125 -7551.5803 298.3811 -4.8199 59.9196 31074.3270 -282.5564 -227.2063
TCL: Running FEP window   4: Lambda1 0.8499999999999999 Lambda2 0.7999999999999998 [dLambda -0.050000000000000044]
TCL: Setting parameter firsttimestep to 0
TCL: Setting parameter alchLambda to 0.8499999999999999
Info: NONBONDED TABLE R-SQUARED SPACING: 0.0625
Info: NONBONDED TABLE SIZE: 705 POINTS
TCL: Setting parameter alchLambda2 to 0.7999999999999998
Info: NONBONDED TABLE R-SQUARED SPACING: 0.0625
Info: NONBONDED TABLE SIZE: 705 POINTS
TCL: Running for 1500000 steps
ETITLE: TS BOND ANGLE DIHED IMPRP ELECT VDW BOUNDARY MISC KINETIC TOTAL TEMP POTENTIAL TOTALAVG TEMPAVG PRESSURE GPRESSURE VOLUME PRESSAVG GPRESSAVG
ENERGY: 0 2.8306 10.0272 8.8952 0.0000 -10840.3569 1470.7240 0.0000 0.0000 1787.2994 -7560.5805 299.9533 -9347.8799 -7560.5805 299.9533 -34.1086 57.3607 31074.3270 -34.1086 57.3607
ENERGY: 300000 3.4668 12.8130 8.0809 0.0000 -10739.3211 1448.1325 0.0000 0.0000 1779.3616 -7487.4663 298.6211 -9266.8279 -7522.0749 299.8650 288.9432 323.2664 30924.3050 102.6823 162.9923
ENERGY: 600000 1.0780 16.3150 7.6058 0.0000 -10699.7096 1412.8481 0.0000 0.0000 1765.4910 -7496.3717 296.2933 -9261.8627 -7504.2712 299.4153 -154.0439 -94.8229 30708.2446 -53.5356 2.1325
ENERGY: 900000 1.3626 13.6209 7.3856 0.0000 -10779.7845 1489.4166 0.0000 0.0000 1760.9023 -7507.0964 295.5232 -9267.9987 -7501.2027 299.6377 430.4553 459.6201 30927.9462 28.9472 76.6363
ENERGY: 1200000 1.7566 16.0207 7.5818 0.0000 -10784.3010 1479.4799 0.0000 0.0000 1778.1037 -7501.3583 298.4100 -9279.4620 -7515.3559 299.0754 495.9993 536.4865 30475.0062 46.1765 93.1636
ENERGY: 1500000 3.9922 11.4220 6.8407 0.0000 -10862.7217 1481.8406 0.0000 0.0000 1766.9241 -7591.7021 296.5338 -9358.6262 -7516.7539 299.5997 555.6362 618.4460 29829.4994 79.0418 130.7029
TCL: Running FEP window   5: Lambda1 0.7999999999999998 Lambda2 0.7499999999999998 [dLambda -0.050000000000000044]
TCL: Setting parameter firsttimestep to 0
TCL: Setting parameter alchLambda to 0.7999999999999998
Info: NONBONDED TABLE R-SQUARED SPACING: 0.0625
Info: NONBONDED TABLE SIZE: 705 POINTS
TCL: Setting parameter alchLambda2 to 0.7499999999999998
Info: NONBONDED TABLE R-SQUARED SPACING: 0.0625
Info: NONBONDED TABLE SIZE: 705 POINTS
TCL: Running for 1500000 steps
ETITLE: TS BOND ANGLE DIHED IMPRP ELECT VDW BOUNDARY MISC KINETIC TOTAL TEMP POTENTIAL TOTALAVG TEMPAVG PRESSURE GPRESSURE VOLUME PRESSAVG GPRESSAVG
ENERGY: 0 3.9922 11.4220 6.8407 0.0000 -10862.5136 1482.0433 0.0000 0.0000 1766.0298 -7592.1857 296.3837 -9358.2154 -7592.1857 296.3837 518.7294 607.0159 29829.4994 518.7294 607.0159
ENERGY: 300000 2.6894 11.0774 6.2257 0.0000 -10835.4602 1419.2445 0.0000 0.0000 1825.3548 -7570.8683 306.3399 -9396.2231 -7597.8128 298.2293 -355.6012 -285.2449 30754.9591 -123.6965 -65.2251
ENERGY: 600000 3.4800 11.3252 7.5805 0.0000 -10896.5754 1458.6892 0.0000 0.0000 1752.6509 -7662.8496 294.1384 -9415.5005 -7584.4861 298.9981 53.1457 90.4276 30366.3245 -43.8054 23.8295
ENERGY: 900000 2.7870 12.4741 5.7775 0.0000 -10702.8744 1380.7867 0.0000 0.0000 1777.8039 -7523.2451 298.3597 -9301.0491 -7576.9667 297.9828 -531.1413 -488.6921 31053.2365 -180.5528 -112.5113
ENERGY: 1200000 2.6688 9.1797 3.9374 0.0000 -10899.7120 1455.1395 0.0000 0.0000 1806.1629 -7622.6238 303.1191 -9428.7867 -7573.7683 298.9905 -131.2894 -79.5439 30395.7986 -180.8662 -116.3798
ENERGY: 1500000 1.4379 10.7844 7.1212 0.0000 -10718.6746 1365.2190 0.0000 0.0000 1813.6621 -7520.4499 304.3776 -9334.1120 -7555.8874 299.7047 -674.0136 -603.0581 30992.4322 -246.8022 -183.0315
TCL: Running FEP window   6: Lambda1 0.7499999999999998 Lambda2 0.6999999999999997 [dLambda -0.050000000000000044]
TCL: Setting parameter firsttimestep to 0
TCL: Setting parameter alchLambda to 0.7499999999999998
Info: NONBONDED TABLE R-SQUARED SPACING: 0.0625
Info: NONBONDED TABLE SIZE: 705 POINTS
TCL: Setting parameter alchLambda2 to 0.6999999999999997
Info: NONBONDED TABLE R-SQUARED SPACING: 0.0625
Info: NONBONDED TABLE SIZE: 705 POINTS
TCL: Running for 1500000 steps
ETITLE: TS BOND ANGLE DIHED IMPRP ELECT VDW BOUNDARY MISC KINETIC TOTAL TEMP POTENTIAL TOTALAVG TEMPAVG PRESSURE GPRESSURE VOLUME PRESSAVG GPRESSAVG
ENERGY: 0 1.4379 10.7844 7.1212 0.0000 -10718.6154 1365.8118 0.0000 0.0000 1812.7414 -7520.7186 304.2231 -9333.4600 -7520.7186 304.2231 -693.2862 -610.4936 30992.4322 -693.2862 -610.4936
ENERGY: 300000 0.7946 8.1261 7.2390 0.0000 -10836.3215 1483.8945 0.0000 0.0000 1781.0726 -7555.1948 298.9083 -9336.2674 -7507.3683 301.7661 459.4543 565.5618 30385.5190 170.3823 256.0924
ENERGY: 600000 1.2231 15.4423 6.8875 0.0000 -10635.7151 1373.8496 0.0000 0.0000 1758.1809 -7480.1316 295.0665 -9238.3125 -7523.4413 300.1728 -455.0702 -397.0602 30801.4781 36.1901 110.6749
ENERGY: 900000 4.3832 13.8626 5.6025 0.0000 -10705.6896 1393.3018 0.0000 0.0000 1773.0899 -7515.4496 297.5686 -9288.5395 -7528.2902 299.7168 50.9362 114.9216 30381.9916 -13.8662 47.0711
ENERGY: 1200000 4.9731 9.5981 6.2059 0.0000 -10806.1856 1435.6724 0.0000 0.0000 1805.1848 -7544.5513 302.9549 -9349.7362 -7516.8876 301.3540 126.0469 206.3040 30346.1407 -60.0339 0.5514
ENERGY: 1500000 4.5451 15.8488 7.4232 0.0000 -10805.7952 1459.8324 0.0000 0.0000 1799.1685 -7518.9773 301.9452 -9318.1458 -7521.2495 301.6106 109.6535 28.7454 31242.3570 -23.7767 28.8525
TCL: Running FEP window   7: Lambda1 0.6999999999999997 Lambda2 0.6499999999999997 [dLambda -0.050000000000000044]
TCL: Setting parameter firsttimestep to 0
TCL: Setting parameter alchLambda to 0.6999999999999997
Info: NONBONDED TABLE R-SQUARED SPACING: 0.0625
Info: NONBONDED TABLE SIZE: 705 POINTS
TCL: Setting parameter alchLambda2 to 0.6499999999999997
Info: NONBONDED TABLE R-SQUARED SPACING: 0.0625
Info: NONBONDED TABLE SIZE: 705 POINTS
TCL: Running for 1500000 steps
ETITLE: TS BOND ANGLE DIHED IMPRP ELECT VDW BOUNDARY MISC KINETIC TOTAL TEMP POTENTIAL TOTALAVG TEMPAVG PRESSURE GPRESSURE VOLUME PRESSAVG GPRESSAVG
ENERGY: 0 4.5451 15.8488 7.4232 0.0000 -10805.7591 1459.6415 0.0000 0.0000 1798.2830 -7520.0174 301.7966 -9318.3005 -7520.0174 301.7966 -62.7890 16.9468 31242.3570 -62.7890 16.9468
ENERGY: 300000 3.6203 9.8694 7.9857 0.0000 -10782.0086 1447.7709 0.0000 0.0000 1847.4195 -7465.3428 310.0430 -9312.7623 -7529.2275 300.9176 -351.8304 -297.7458 31178.7445 -29.7559 21.8389
ENERGY: 600000 1.2057 9.6185 11.0146 0.0000 -10641.8199 1394.8550 0.0000 0.0000 1822.4513 -7402.6749 305.8527 -9225.1262 -7502.5730 302.4466 -298.3069 -212.7538 31199.1986 -17.5366 40.7541
ENERGY: 900000 1.9348 11.5503 7.7830 0.0000 -10771.3169 1407.5744 0.0000 0.0000 1783.0737 -7559.4008 299.2441 -9342.4744 -7518.6399 301.7739 -370.3354 -358.9710 30906.7857 -122.7361 -73.0071
ENERGY: 1200000 2.5451 10.8199 7.8693 0.0000 -10779.6778 1494.5735 0.0000 0.0000 1752.8899 -7510.9802 294.1785 -9263.8701 -7510.4157 301.2365 569.6881 658.5734 30586.9247 -143.9823 -90.1331
ENERGY: 1500000 1.3225 14.0240 6.8158 0.0000 -10869.0152 1527.8855 0.0000 0.0000 1758.5117 -7560.4558 295.1220 -9318.9674 -7515.5635 300.4825 493.5562 545.4011 30848.8860 -115.8406 -67.1625
TCL: Running FEP window   8: Lambda1 0.6499999999999997 Lambda2 0.5999999999999996 [dLambda -0.050000000000000044]
TCL: Setting parameter firsttimestep to 0
TCL: Setting parameter alchLambda to 0.6499999999999997
Info: NONBONDED TABLE R-SQUARED SPACING: 0.0625
Info: NONBONDED TABLE SIZE: 705 POINTS
TCL: Setting parameter alchLambda2 to 0.5999999999999996
Info: NONBONDED TABLE R-SQUARED SPACING: 0.0625
Info: NONBONDED TABLE SIZE: 705 POINTS
TCL: Running for 1500000 steps
ETITLE: TS BOND ANGLE DIHED IMPRP ELECT VDW BOUNDARY MISC KINETIC TOTAL TEMP POTENTIAL TOTALAVG TEMPAVG PRESSURE GPRESSURE VOLUME PRESSAVG GPRESSAVG
ENERGY: 0 1.3225 14.0240 6.8158 0.0000 -10868.9258 1527.7778 0.0000 0.0000 1757.6324 -7561.3533 294.9744 -9318.9857 -7561.3533 294.9744 455.7901 532.9033 30848.8860 455.7901 532.9033
ENERGY: 300000 7.2065 12.8743 6.7191 0.0000 -10802.1284 1527.5901 0.0000 0.0000 1800.6213 -7447.1170 302.1890 -9247.7383 -7525.9520 298.9836 729.9600 829.3521 30693.2932 385.0398 476.0796
ENERGY: 600000 2.1898 15.8914 6.2384 0.0000 -10757.4617 1403.2049 0.0000 0.0000 1743.0817 -7586.8554 292.5325 -9329.9372 -7547.6186 298.5086 -225.6431 -244.1842 30665.1958 370.2075 443.8168
ENERGY: 900000 1.0335 10.0307 9.9734 0.0000 -10592.9662 1302.2696 0.0000 0.0000 1768.2884 -7501.3705 296.7628 -9269.6590 -7550.7140 299.0544 -1045.4556 -1015.7928 31290.1731 165.2326 233.7353
ENERGY: 1200000 4.8755 13.2479 8.3263 0.0000 -10795.6736 1521.9758 0.0000 0.0000 1812.1749 -7435.0732 304.1280 -9247.2481 -7536.0596 299.5958 524.4759 646.2192 31073.6432 141.2454 214.8856
ENERGY: 1500000 3.1255 10.2992 5.5133 0.0000 -10881.3783 1491.2665 0.0000 0.0000 1835.3477 -7535.8262 308.0170 -9371.1739 -7541.8595 300.0489 408.8065 442.4244 30752.8051 124.9679 188.5256
TCL: Running FEP window   9: Lambda1 0.5999999999999996 Lambda2 0.5499999999999996 [dLambda -0.050000000000000044]
TCL: Setting parameter firsttimestep to 0
TCL: Setting parameter alchLambda to 0.5999999999999996
Info: NONBONDED TABLE R-SQUARED SPACING: 0.0625
Info: NONBONDED TABLE SIZE: 705 POINTS
TCL: Setting parameter alchLambda2 to 0.5499999999999996
Info: NONBONDED TABLE R-SQUARED SPACING: 0.0625
Info: NONBONDED TABLE SIZE: 705 POINTS
TCL: Running for 1500000 steps
ETITLE: TS BOND ANGLE DIHED IMPRP ELECT VDW BOUNDARY MISC KINETIC TOTAL TEMP POTENTIAL TOTALAVG TEMPAVG PRESSURE GPRESSURE VOLUME PRESSAVG GPRESSAVG
ENERGY: 0 3.1255 10.2992 5.5133 0.0000 -10881.2973 1491.7921 0.0000 0.0000 1834.4545 -7536.1127 307.8671 -9370.5673 -7536.1127 307.8671 357.3490 437.9096 30752.8051 357.3490 437.9096
ENERGY: 300000 1.3881 12.2837 8.2966 0.0000 -10959.8828 1521.4525 0.0000 0.0000 1737.7047 -7678.7573 291.6301 -9416.4619 -7585.7659 299.6058 49.1549 156.3393 30875.5894 -20.9977 38.2854
ENERGY: 600000 1.2126 12.6935 7.7518 0.0000 -10820.0911 1455.8160 0.0000 0.0000 1787.0022 -7555.6151 299.9034 -9342.6172 -7571.4650 300.0355 84.9522 68.9668 30557.1589 -79.6309 -13.9207
ENERGY: 900000 3.2212 9.9964 7.5855 0.0000 -10598.8094 1266.2229 0.0000 0.0000 1728.0457 -7583.7378 290.0091 -9311.7835 -7557.0149 299.3050 -1689.2908 -1561.9450 30978.0742 -222.6684 -142.5999
ENERGY: 1200000 4.0375 15.4779 7.7800 0.0000 -10726.7574 1444.6614 0.0000 0.0000 1846.9837 -7407.8168 309.9698 -9254.8006 -7532.6449 300.8191 -139.7987 -73.2139 31186.2587 -304.8436 -227.3172
ENERGY: 1500000 1.4261 10.6188 4.5726 0.0000 -10727.0901 1364.6652 0.0000 0.0000 1744.8648 -7600.9426 292.8317 -9345.8075 -7545.1893 299.5411 -698.1896 -678.7124 30762.4376 -306.6314 -228.6940
TCL: Running FEP window  10: Lambda1 0.5499999999999996 Lambda2 0.4999999999999996 [dLambda -0.04999999999999999]
TCL: Setting parameter firsttimestep to 0
TCL: Setting parameter alchLambda to 0.5499999999999996
Info: NONBONDED TABLE R-SQUARED SPACING: 0.0625
Info: NONBONDED TABLE SIZE: 705 POINTS
TCL: Setting parameter alchLambda2 to 0.4999999999999996
Info: NONBONDED TABLE R-SQUARED SPACING: 0.0625
Info: NONBONDED TABLE SIZE: 705 POINTS
TCL: Running for 1500000 steps
ETITLE: TS BOND ANGLE DIHED IMPRP ELECT VDW BOUNDARY MISC KINETIC TOTAL TEMP POTENTIAL TOTALAVG TEMPAVG PRESSURE GPRESSURE VOLUME PRESSAVG GPRESSAVG
ENERGY: 0 1.4261 10.6188 4.5726 0.0000 -10727.0927 1365.2952 0.0000 0.0000 1743.9817 -7601.1984 292.6835 -9345.1801 -7601.1984 292.6835 -756.0839 -681.5533 30762.4376 -756.0839 -681.5533
ENERGY: 300000 1.6958 10.6647 6.9968 0.0000 -10839.0078 1544.6314 0.0000 0.0000 1721.3320 -7553.6871 288.8823 -9275.0190 -7586.1018 292.9574 895.8130 980.0154 30449.1413 -19.6332 50.3418
ENERGY: 600000 3.1213 5.9763 7.3510 0.0000 -10827.8358 1465.4623 0.0000 0.0000 1852.3302 -7493.5945 310.8671 -9345.9247 -7534.4217 299.4502 18.9792 33.6681 30739.4585 96.7752 145.5875
ENERGY: 900000 1.7146 11.4943 7.5520 0.0000 -10898.1587 1505.1274 0.0000 0.0000 1787.4249 -7584.8457 299.9744 -9372.2706 -7540.0973 300.0978 484.2874 611.1405 30434.0544 55.2095 110.9642
ENERGY: 1200000 1.1169 9.9266 6.2962 0.0000 -10746.5935 1389.0355 0.0000 0.0000 1760.6973 -7579.5211 295.4888 -9340.2184 -7540.3749 299.1851 -588.4695 -516.8058 30756.8609 15.9812 73.6736
ENERGY: 1500000 3.7823 12.5559 8.3611 0.0000 -10797.6504 1485.4868 0.0000 0.0000 1775.9156 -7511.5487 298.0428 -9287.4643 -7535.2930 299.4392 273.0934 357.3474 30575.1636 12.7176 75.7780
TCL: Running FEP window  11: Lambda1 0.4999999999999996 Lambda2 0.4499999999999996 [dLambda -0.04999999999999999]
TCL: Setting parameter firsttimestep to 0
TCL: Setting parameter alchLambda to 0.4999999999999996
Info: NONBONDED TABLE R-SQUARED SPACING: 0.0625
Info: NONBONDED TABLE SIZE: 705 POINTS
TCL: Setting parameter alchLambda2 to 0.4499999999999996
Info: NONBONDED TABLE R-SQUARED SPACING: 0.0625
Info: NONBONDED TABLE SIZE: 705 POINTS
TCL: Running for 1500000 steps
ETITLE: TS BOND ANGLE DIHED IMPRP ELECT VDW BOUNDARY MISC KINETIC TOTAL TEMP POTENTIAL TOTALAVG TEMPAVG PRESSURE GPRESSURE VOLUME PRESSAVG GPRESSAVG
ENERGY: 0 3.7823 12.5559 8.3611 0.0000 -10797.6141 1486.0639 0.0000 0.0000 1774.9769 -7511.8740 297.8853 -9286.8509 -7511.8740 297.8853 270.7341 351.3986 30575.1636 270.7341 351.3986
ENERGY: 300000 2.8502 14.3658 5.0831 0.0000 -10777.6444 1436.1437 0.0000 0.0000 1750.1410 -7569.0607 293.7172 -9319.2017 -7534.2402 297.5571 -299.7291 -298.2502 31240.3894 -83.4208 -50.2923
ENERGY: 600000 1.1124 10.5813 5.7216 0.0000 -10902.9268 1518.0607 0.0000 0.0000 1769.4821 -7597.9687 296.9631 -9367.4508 -7532.6360 299.0935 552.6023 596.9775 30285.6733 -179.5795 -157.0774
ENERGY: 900000 2.9901 6.4352 7.2604 0.0000 -10843.6032 1444.9768 0.0000 0.0000 1814.1332 -7567.8075 304.4567 -9381.9407 -7526.6769 300.0913 -363.5861 -264.8733 30794.7820 -158.6053 -122.3223
ENERGY: 1200000 1.8191 12.2355 7.3721 0.0000 -10746.4034 1413.5697 0.0000 0.0000 1841.4560 -7469.9511 309.0421 -9311.4070 -7526.1592 301.4448 -90.1316 -87.8075 30480.7715 -164.0606 -126.6730
ENERGY: 1500000 3.5602 11.9090 9.6944 0.0000 -10710.8483 1335.6792 0.0000 0.0000 1822.9608 -7527.0448 305.9382 -9350.0056 -7528.1060 301.9145 -1000.7179 -958.4223 30588.0348 -257.5982 -216.2737
TCL: Running FEP window  12: Lambda1 0.4499999999999996 Lambda2 0.39999999999999963 [dLambda -0.04999999999999999]
TCL: Setting parameter firsttimestep to 0
TCL: Setting parameter alchLambda to 0.4499999999999996
Info: NONBONDED TABLE R-SQUARED SPACING: 0.0625
Info: NONBONDED TABLE SIZE: 705 POINTS
TCL: Setting parameter alchLambda2 to 0.39999999999999963
Info: NONBONDED TABLE R-SQUARED SPACING: 0.0625
Info: NONBONDED TABLE SIZE: 705 POINTS
TCL: Running for 1500000 steps
ETITLE: TS BOND ANGLE DIHED IMPRP ELECT VDW BOUNDARY MISC KINETIC TOTAL TEMP POTENTIAL TOTALAVG TEMPAVG PRESSURE GPRESSURE VOLUME PRESSAVG GPRESSAVG
ENERGY: 0 3.5602 11.9090 9.6944 0.0000 -10710.8486 1335.8291 0.0000 0.0000 1822.0753 -7527.7806 305.7896 -9349.8559 -7527.7806 305.7896 -1051.5526 -966.1546 30588.0348 -1051.5526 -966.1546
ENERGY: 300000 1.2775 17.0850 8.6437 0.0000 -10701.1202 1369.2224 0.0000 0.0000 1750.7998 -7554.0918 293.8278 -9304.8916 -7564.7090 296.4002 -731.2053 -697.3078 30888.3422 -592.5865 -556.5942
ENERGY: 600000 3.3514 13.2124 7.3712 0.0000 -10624.6162 1331.1890 0.0000 0.0000 1802.2509 -7467.2412 302.4625 -9269.4921 -7525.0647 299.3078 -859.6093 -834.2399 30916.3865 -593.5224 -543.6831
ENERGY: 900000 2.1575 16.6900 6.6365 0.0000 -10679.7875 1335.4137 0.0000 0.0000 1746.0062 -7572.8836 293.0233 -9318.8898 -7530.4596 300.3080 -840.1731 -771.7102 30826.4098 -486.2562 -438.6878
ENERGY: 1200000 3.4225 5.0386 8.2745 0.0000 -10742.3980 1358.9179 0.0000 0.0000 1837.3211 -7529.4234 308.3482 -9366.7446 -7532.3584 300.4836 -868.0752 -827.0532 30816.8916 -461.9685 -418.1752
ENERGY: 1500000 2.5840 12.6739 9.0452 0.0000 -10819.5529 1441.9674 0.0000 0.0000 1788.4103 -7564.8722 300.1397 -9353.2824 -7536.0122 299.8786 -252.0997 -190.6311 30602.6174 -443.6973 -391.8542
TCL: Running FEP window  13: Lambda1 0.39999999999999963 Lambda2 0.34999999999999964 [dLambda -0.04999999999999999]
TCL: Setting parameter firsttimestep to 0
TCL: Setting parameter alchLambda to 0.39999999999999963
Info: NONBONDED TABLE R-SQUARED SPACING: 0.0625
Info: NONBONDED TABLE SIZE: 705 POINTS
TCL: Setting parameter alchLambda2 to 0.34999999999999964
Info: NONBONDED TABLE R-SQUARED SPACING: 0.0625
Info: NONBONDED TABLE SIZE: 705 POINTS
TCL: Running for 1500000 steps
ETITLE: TS BOND ANGLE DIHED IMPRP ELECT VDW BOUNDARY MISC KINETIC TOTAL TEMP POTENTIAL TOTALAVG TEMPAVG PRESSURE GPRESSURE VOLUME PRESSAVG GPRESSAVG
ENERGY: 0 2.5840 12.6739 9.0452 0.0000 -10819.5528 1442.4636 0.0000 0.0000 1787.5199 -7565.2661 299.9903 -9352.7860 -7565.2661 299.9903 -266.2060 -192.4492 30602.6174 -266.2060 -192.4492
ENERGY: 300000 6.2436 16.0665 9.5054 0.0000 -10932.9230 1486.7766 0.0000 0.0000 1786.9567 -7627.3742 299.8958 -9414.3309 -7543.1927 299.4517 27.7575 43.2878 30707.8124 -213.2157 -181.1143
ENERGY: 600000 5.5605 12.2978 7.7185 0.0000 -10881.2145 1520.8908 0.0000 0.0000 1788.7676 -7545.9792 300.1997 -9334.7468 -7542.0392 296.8946 402.3385 524.0441 30561.4011 -103.6945 -61.7599
ENERGY: 900000 2.5152 8.1143 6.6867 0.0000 -10927.1733 1549.3294 0.0000 0.0000 1761.0290 -7599.4986 295.5445 -9360.5277 -7548.9999 298.0209 617.2524 670.9905 30548.6482 -46.4789 6.4029
ENERGY: 1200000 1.6378 8.5647 3.9492 0.0000 -10766.1316 1446.7751 0.0000 0.0000 1755.7126 -7549.4922 294.6523 -9305.2049 -7537.6968 298.1520 64.2021 92.5115 30737.0431 31.5342 84.1623
ENERGY: 1500000 1.8357 10.0727 7.1625 0.0000 -10859.5076 1461.2125 0.0000 0.0000 1781.3986 -7597.8257 298.9630 -9379.2243 -7542.6261 298.2360 -75.9965 9.2140 30581.1304 -72.5624 -18.5456
TCL: Running FEP window  14: Lambda1 0.34999999999999964 Lambda2 0.29999999999999966 [dLambda -0.04999999999999999]
TCL: Setting parameter firsttimestep to 0
TCL: Setting parameter alchLambda to 0.34999999999999964
Info: NONBONDED TABLE R-SQUARED SPACING: 0.0625
Info: NONBONDED TABLE SIZE: 705 POINTS
TCL: Setting parameter alchLambda2 to 0.29999999999999966
Info: NONBONDED TABLE R-SQUARED SPACING: 0.0625
Info: NONBONDED TABLE SIZE: 705 POINTS
TCL: Running for 1500000 steps
ETITLE: TS BOND ANGLE DIHED IMPRP ELECT VDW BOUNDARY MISC KINETIC TOTAL TEMP POTENTIAL TOTALAVG TEMPAVG PRESSURE GPRESSURE VOLUME PRESSAVG GPRESSAVG
ENERGY: 0 1.8357 10.0727 7.1625 0.0000 -10859.5091 1461.1442 0.0000 0.0000 1780.5161 -7598.7779 298.8149 -9379.2940 -7598.7779 298.8149 -105.5720 0.1152 30581.1304 -105.5720 0.1152
ENERGY: 300000 3.4308 16.1076 7.3830 0.0000 -10913.3780 1485.3942 0.0000 0.0000 1789.9225 -7611.1400 300.3935 -9401.0625 -7543.2930 303.2617 -23.3249 26.8312 30511.6629 -134.6594 -58.4944
ENERGY: 600000 2.4610 13.0823 7.2200 0.0000 -10867.8550 1477.3414 0.0000 0.0000 1735.4242 -7632.3261 291.2474 -9367.7503 -7568.5096 298.5270 -150.0386 -76.4164 30854.3312 11.3545 89.1721
ENERGY: 900000 1.8123 12.1587 7.3842 0.0000 -10764.8724 1490.1796 0.0000 0.0000 1780.9278 -7472.4097 298.8840 -9253.3375 -7577.5731 297.9912 555.8417 631.2069 30632.6150 -19.1841 61.2693
ENERGY: 1200000 1.8309 9.8354 6.6681 0.0000 -10959.6141 1558.6505 0.0000 0.0000 1793.6362 -7588.9930 301.0168 -9382.6292 -7570.8521 298.8858 828.8067 851.9845 30300.0262 46.4550 126.3169
ENERGY: 1500000 1.6877 10.3545 9.0148 0.0000 -10900.5629 1501.4347 0.0000 0.0000 1806.3601 -7571.7112 303.1522 -9378.0712 -7570.9951 298.3411 73.7943 168.2078 30546.6435 -38.1408 43.5106
TCL: Running FEP window  15: Lambda1 0.29999999999999966 Lambda2 0.24999999999999967 [dLambda -0.04999999999999999]
TCL: Setting parameter firsttimestep to 0
TCL: Setting parameter alchLambda to 0.29999999999999966
Info: NONBONDED TABLE R-SQUARED SPACING: 0.0625
Info: NONBONDED TABLE SIZE: 705 POINTS
TCL: Setting parameter alchLambda2 to 0.24999999999999967
Info: NONBONDED TABLE R-SQUARED SPACING: 0.0625
Info: NONBONDED TABLE SIZE: 705 POINTS
TCL: Running for 1500000 steps
ETITLE: TS BOND ANGLE DIHED IMPRP ELECT VDW BOUNDARY MISC KINETIC TOTAL TEMP POTENTIAL TOTALAVG TEMPAVG PRESSURE GPRESSURE VOLUME PRESSAVG GPRESSAVG
ENERGY: 0 1.6877 10.3545 9.0148 0.0000 -10900.5642 1500.4524 0.0000 0.0000 1805.4686 -7573.5862 303.0026 -9379.0549 -7573.5862 303.0026 76.6189 155.4395 30546.6435 76.6189 155.4395
ENERGY: 300000 3.4610 12.7247 7.3275 0.0000 -10673.1503 1334.0904 0.0000 0.0000 1797.8058 -7517.7409 301.7165 -9315.5467 -7509.8246 303.5753 -694.3651 -601.1804 30292.6300 -77.5373 30.3272
ENERGY: 600000 3.0242 13.0980 6.4457 0.0000 -10871.1536 1481.1660 0.0000 0.0000 1777.8405 -7589.5791 298.3659 -9367.4196 -7511.5925 303.2492 -153.5793 -102.7963 30957.0112 -59.6618 25.9329
ENERGY: 900000 1.1394 10.9329 7.6220 0.0000 -10919.8479 1519.7971 0.0000 0.0000 1780.9050 -7599.4516 298.8802 -9380.3566 -7523.5858 301.4242 492.9603 486.1106 30344.2944 -74.5696 1.9483
ENERGY: 1200000 1.7420 11.8151 8.6584 0.0000 -10772.9822 1444.6175 0.0000 0.0000 1865.5336 -7440.6157 313.0829 -9306.1493 -7511.7038 302.2361 66.6528 127.8891 30391.0847 -54.8793 18.3362
ENERGY: 1500000 3.3266 9.2273 7.1884 0.0000 -10865.2332 1451.5558 0.0000 0.0000 1796.2772 -7597.6579 301.4600 -9393.9351 -7522.6016 301.7604 -248.4314 -190.2519 30804.7868 -121.9114 -56.3761
TCL: Running FEP window  16: Lambda1 0.24999999999999967 Lambda2 0.19999999999999968 [dLambda -0.04999999999999999]
TCL: Setting parameter firsttimestep to 0
TCL: Setting parameter alchLambda to 0.24999999999999967
Info: NONBONDED TABLE R-SQUARED SPACING: 0.0625
Info: NONBONDED TABLE SIZE: 705 POINTS
TCL: Setting parameter alchLambda2 to 0.19999999999999968
Info: NONBONDED TABLE R-SQUARED SPACING: 0.0625
Info: NONBONDED TABLE SIZE: 705 POINTS
TCL: Running for 1500000 steps
ETITLE: TS BOND ANGLE DIHED IMPRP ELECT VDW BOUNDARY MISC KINETIC TOTAL TEMP POTENTIAL TOTALAVG TEMPAVG PRESSURE GPRESSURE VOLUME PRESSAVG GPRESSAVG
ENERGY: 0 3.3266 9.2273 7.1884 0.0000 -10865.2334 1451.5409 0.0000 0.0000 1795.3759 -7598.5744 301.3087 -9393.9502 -7598.5744 301.3087 -278.3484 -196.7325 30804.7868 -278.3484 -196.7325
ENERGY: 300000 2.8188 13.5615 10.0185 0.0000 -10750.2927 1460.7153 0.0000 0.0000 1806.9730 -7456.2057 303.2550 -9263.1787 -7526.5112 302.9968 17.8089 99.6075 30965.4863 69.7620 160.5317
ENERGY: 600000 1.3920 11.2835 6.9970 0.0000 -10686.9672 1407.2645 0.0000 0.0000 1804.9155 -7455.1147 302.9097 -9260.0302 -7514.6874 302.4187 -39.0892 -2.3165 30406.5776 -8.6583 57.4350
ENERGY: 900000 2.5923 13.5705 7.6035 0.0000 -10713.5391 1392.7504 0.0000 0.0000 1770.4948 -7526.5278 297.1331 -9297.0225 -7525.2681 301.1408 -582.6092 -539.8940 30838.5069 -134.0579 -70.1069
ENERGY: 1200000 3.4115 14.8414 6.9381 0.0000 -10800.3626 1499.0758 0.0000 0.0000 1807.5873 -7468.5085 303.3581 -9276.0958 -7520.2925 300.6872 509.5927 580.7941 30689.5093 44.9125 110.8598
ENERGY: 1500000 3.3188 14.2958 6.5913 0.0000 -10620.0117 1451.8429 0.0000 0.0000 1756.1640 -7387.7990 294.7280 -9143.9630 -7509.3484 300.2655 205.8391 252.3538 31154.2886 68.9033 134.9109
TCL: Running FEP window  17: Lambda1 0.19999999999999968 Lambda2 0.1499999999999997 [dLambda -0.04999999999999999]
TCL: Setting parameter firsttimestep to 0
TCL: Setting parameter alchLambda to 0.19999999999999968
Info: NONBONDED TABLE R-SQUARED SPACING: 0.0625
Info: NONBONDED TABLE SIZE: 705 POINTS
TCL: Setting parameter alchLambda2 to 0.1499999999999997
Info: NONBONDED TABLE R-SQUARED SPACING: 0.0625
Info: NONBONDED TABLE SIZE: 705 POINTS
TCL: Running for 1500000 steps
ETITLE: TS BOND ANGLE DIHED IMPRP ELECT VDW BOUNDARY MISC KINETIC TOTAL TEMP POTENTIAL TOTALAVG TEMPAVG PRESSURE GPRESSURE VOLUME PRESSAVG GPRESSAVG
ENERGY: 0 3.3188 14.2958 6.5913 0.0000 -10620.0127 1451.6860 0.0000 0.0000 1755.2813 -7388.8395 294.5799 -9144.1208 -7388.8395 294.5799 173.2975 246.5850 31154.2886 173.2975 246.5850
ENERGY: 300000 5.0603 15.1739 6.6376 0.0000 -10807.6614 1514.3522 0.0000 0.0000 1788.1543 -7478.2831 300.0968 -9266.4374 -7515.7806 297.0808 615.4069 755.6772 30439.9952 103.2867 185.6658
ENERGY: 600000 3.0675 13.0549 10.9015 0.0000 -10856.9328 1553.3467 0.0000 0.0000 1773.9491 -7502.6131 297.7128 -9276.5622 -7501.4849 298.5394 947.3341 1038.0333 30416.5390 280.8079 360.2660
ENERGY: 900000 0.4040 11.5182 6.2797 0.0000 -10849.0920 1505.2257 0.0000 0.0000 1789.4063 -7536.2581 300.3069 -9325.6644 -7501.9675 299.1304 243.3299 292.4760 30918.5631 247.6520 328.7106
ENERGY: 1200000 2.0199 13.7271 5.6267 0.0000 -10695.3038 1380.8597 0.0000 0.0000 1843.7246 -7449.3459 309.4229 -9293.0705 -7505.1273 300.1447 -612.5074 -522.6595 31000.4166 107.9447 183.2106
ENERGY: 1500000 5.1810 14.8230 7.4033 0.0000 -10792.8139 1463.5563 0.0000 0.0000 1769.6302 -7532.2201 296.9880 -9301.8503 -7510.0947 299.7556 253.9887 332.4278 30473.5339 133.0241 206.7304
TCL: Running FEP window  18: Lambda1 0.1499999999999997 Lambda2 0.09999999999999969 [dLambda -0.05 ]
TCL: Setting parameter firsttimestep to 0
TCL: Setting parameter alchLambda to 0.1499999999999997
Info: NONBONDED TABLE R-SQUARED SPACING: 0.0625
Info: NONBONDED TABLE SIZE: 705 POINTS
TCL: Setting parameter alchLambda2 to 0.09999999999999969
Info: NONBONDED TABLE R-SQUARED SPACING: 0.0625
Info: NONBONDED TABLE SIZE: 705 POINTS
TCL: Running for 1500000 steps
ETITLE: TS BOND ANGLE DIHED IMPRP ELECT VDW BOUNDARY MISC KINETIC TOTAL TEMP POTENTIAL TOTALAVG TEMPAVG PRESSURE GPRESSURE VOLUME PRESSAVG GPRESSAVG
ENERGY: 0 5.1810 14.8230 7.4033 0.0000 -10792.8151 1463.7709 0.0000 0.0000 1768.7311 -7532.9059 296.8371 -9301.6370 -7532.9059 296.8371 246.9068 326.6013 30473.5339 246.9068 326.6013
ENERGY: 300000 4.3385 13.8516 8.2200 0.0000 -10953.7569 1541.8734 0.0000 0.0000 1833.7586 -7551.7149 307.7503 -9385.4734 -7556.7887 300.5891 495.5872 557.5748 30651.0248 -17.6885 62.9987
ENERGY: 600000 0.9434 8.4085 5.6106 0.0000 -10885.9559 1507.3818 0.0000 0.0000 1772.3130 -7591.2986 297.4382 -9363.6115 -7562.8090 299.4152 474.7866 480.3064 30279.7579 167.3395 231.0028
ENERGY: 900000 2.2541 8.7259 9.2148 0.0000 -10930.2924 1519.2332 0.0000 0.0000 1782.5138 -7608.3506 299.1502 -9390.8644 -7550.4848 300.8946 221.6680 255.9597 30741.0691 79.1467 133.4646
ENERGY: 1200000 4.3056 11.1091 4.7688 0.0000 -10600.8076 1324.9902 0.0000 0.0000 1785.9177 -7469.7160 299.7214 -9255.6338 -7528.0560 301.0214 -745.1287 -724.4520 30473.6363 37.3517 92.4388
ENERGY: 1500000 2.6261 13.5637 6.6928 0.0000 -10747.9459 1410.5448 0.0000 0.0000 1802.1301 -7512.3884 302.4423 -9314.5185 -7525.6406 301.1097 -223.1020 -157.7312 30403.8866 23.3109 76.7823
TCL: Running FEP window  19: Lambda1 0.09999999999999969 Lambda2 0.049999999999999684 [dLambda -0.05 ]
TCL: Setting parameter firsttimestep to 0
TCL: Setting parameter alchLambda to 0.09999999999999969
Info: NONBONDED TABLE R-SQUARED SPACING: 0.0625
Info: NONBONDED TABLE SIZE: 705 POINTS
TCL: Setting parameter alchLambda2 to 0.049999999999999684
Info: NONBONDED TABLE R-SQUARED SPACING: 0.0625
Info: NONBONDED TABLE SIZE: 705 POINTS
TCL: Running for 1500000 steps
ETITLE: TS BOND ANGLE DIHED IMPRP ELECT VDW BOUNDARY MISC KINETIC TOTAL TEMP POTENTIAL TOTALAVG TEMPAVG PRESSURE GPRESSURE VOLUME PRESSAVG GPRESSAVG
ENERGY: 0 2.6261 13.5636 6.6928 0.0000 -10747.9446 1410.4424 0.0000 0.0000 1801.2454 -7513.3742 302.2938 -9314.6196 -7513.3742 302.2938 -249.2247 -160.7374 30403.8866 -249.2247 -160.7374
ENERGY: 300000 7.9598 13.4316 8.4672 0.0000 -10746.4228 1394.3745 0.0000 0.0000 1825.5190 -7496.6706 306.3675 -9322.1897 -7539.9914 300.1292 -795.2480 -741.6649 30698.1491 -198.5081 -162.1436
ENERGY: 600000 2.9069 13.8582 7.0069 0.0000 -10811.1015 1456.0295 0.0000 0.0000 1784.1530 -7547.1470 299.4253 -9331.3000 -7536.7326 299.4413 -138.3875 -66.4328 30852.2702 -173.7455 -146.8939
ENERGY: 900000 3.0738 12.6495 8.1946 0.0000 -10818.8961 1443.1714 0.0000 0.0000 1732.5820 -7619.2248 290.7704 -9351.8068 -7549.6659 298.1915 -60.9403 6.8990 30243.1256 -134.1412 -90.7975
ENERGY: 1200000 1.6854 10.8899 6.5416 0.0000 -10648.7431 1379.6157 0.0000 0.0000 1687.7558 -7562.2548 283.2474 -9250.0106 -7562.6088 296.5468 -709.9076 -633.8188 30898.3518 -203.5629 -152.1550
ENERGY: 1500000 3.9142 8.3835 6.9976 0.0000 -10795.1748 1515.5671 0.0000 0.0000 1748.1292 -7512.1832 293.3796 -9260.3124 -7564.8221 296.3591 502.4541 512.1191 30427.0826 -148.8303 -101.7694
TCL: Running FEP window  20: Lambda1 0.049999999999999684 Lambda2 0.0    [dLambda -0.049999999999999684]
TCL: Setting parameter firsttimestep to 0
TCL: Setting parameter alchLambda to 0.049999999999999684
Info: NONBONDED TABLE R-SQUARED SPACING: 0.0625
Info: NONBONDED TABLE SIZE: 705 POINTS
TCL: Setting parameter alchLambda2 to 0.0
Info: NONBONDED TABLE R-SQUARED SPACING: 0.0625
Info: NONBONDED TABLE SIZE: 705 POINTS
TCL: Running for 1500000 steps
ETITLE: TS BOND ANGLE DIHED IMPRP ELECT VDW BOUNDARY MISC KINETIC TOTAL TEMP POTENTIAL TOTALAVG TEMPAVG PRESSURE GPRESSURE VOLUME PRESSAVG GPRESSAVG
ENERGY: 0 3.9142 8.3835 6.9976 0.0000 -10795.1731 1515.4848 0.0000 0.0000 1747.2190 -7513.1740 293.2268 -9260.3930 -7513.1740 293.2268 422.0320 507.2763 30427.0826 422.0320 507.2763
ENERGY: 300000 3.2831 8.7804 8.3444 0.0000 -10829.6093 1477.6097 0.0000 0.0000 1778.8178 -7552.7739 298.5299 -9331.5917 -7526.7940 298.2496 512.0624 610.9246 30122.7619 296.2150 377.5014
ENERGY: 600000 3.3803 13.3069 8.1639 0.0000 -10819.4612 1406.6555 0.0000 0.0000 1760.5695 -7627.3852 295.4674 -9387.9547 -7543.6166 298.9185 -720.9667 -710.3069 30807.7243 -69.9903 10.1490
ENERGY: 900000 1.1574 12.3795 7.2734 0.0000 -10771.5241 1428.5716 0.0000 0.0000 1795.8732 -7526.2690 301.3922 -9322.1422 -7541.0691 298.8566 -87.7561 -57.2069 30740.5845 -98.5367 -32.9204
ENERGY: 1200000 1.8583 12.3780 9.1789 0.0000 -10882.7071 1453.2141 0.0000 0.0000 1780.7329 -7625.3449 298.8513 -9406.0778 -7541.2947 298.5954 -381.2584 -310.5463 30986.5600 2.2983 72.8999
ENERGY: 1500000 1.9182 7.5555 10.1689 0.0000 -10820.9836 1499.7403 0.0000 0.0000 1830.5560 -7471.0446 307.2128 -9301.6006 -7520.9965 299.5317 392.5982 456.4871 30516.0026 7.6950 83.4565
TCL: Exiting due to exit command.
