Info: SIMULATION PARAMETERS:
Info: TIMESTEP               2
Info: NUMBER OF STEPS        0
Info: STEPS PER CYCLE        10
Info: PERIODIC CELL BASIS 1  36.1245 0 0
Info: PERIODIC CELL BASIS 2  0 29.3393 0
Info: PERIODIC CELL BASIS 3  0 0 28.9827
Info: PERIODIC CELL CENTER   0 0 0
Info: WRAPPING WATERS AROUND PERIODIC BOUNDARIES ON OUTPUT.
Info: WRAPPING ALL CLUSTERS AROUND PERIODIC BOUNDARIES ON OUTPUT.
Info: FIRST LDB TIMESTEP     50
Info: LAST LDB TIMESTEP     -1
Info: HOM BACKGROUND SCALING 1
Info: PME BACKGROUND SCALING 1
Info: MIN ATOMS PER PATCH    40
Info: EMPTY PATCH LOAD       40 ATOMS
Info: VELOCITY FILE          mobley_7860938_equil.vel
Info: CENTER OF MASS MOVING INITIALLY? NO
Info: DIELECTRIC             1
Info: EXCLUDE                SCALED ONE-FOUR
Info: 1-4 ELECTROSTATICS SCALED BY 0.833333
Info: MODIFIED 1-4 VDW PARAMETERS WILL BE USED
Info: DCD FILENAME           mobley_7860938_prod.dcd
Info: DCD FREQUENCY          100000
Info: DCD FIRST STEP         100000
Info: DCD FILE WILL CONTAIN UNIT CELL DATA
Info: XST FILENAME           mobley_7860938_prod.xst
Info: XST FREQUENCY          100000
Info: NO VELOCITY DCD OUTPUT
Info: NO FORCE DCD OUTPUT
Info: OUTPUT FILENAME        mobley_7860938_prod
Info: BINARY OUTPUT FILES WILL BE USED
Info: RESTART FILENAME       mobley_7860938_prod.restart
Info: RESTART FREQUENCY      100000
Info: BINARY RESTART FILES WILL BE USED
Info: CUTOFF                 9
Info: PAIRLIST DISTANCE      11
Info: PAIRLIST SHRINK RATE   0.01
Info: PAIRLIST GROW RATE     0.01
Info: PAIRLIST TRIGGER       0.3
Info: PAIRLISTS PER CYCLE    2
Info: PAIRLISTS ENABLED
Info: MARGIN                 2
Info: HYDROGEN GROUP CUTOFF  2.5
Info: PATCH DIMENSION        15.5
Info: ENERGY OUTPUT STEPS    100000
Info: ENERGY EVALUATION STEPS    100000
Info: OUTPUT ENERGY PRECISION 4
Info: CROSSTERM ENERGY INCLUDED IN DIHEDRAL
Info: TIMING OUTPUT STEPS    1000000
Info: PRESSURE OUTPUT STEPS  100000
Info: ALCHEMICAL FEP ON
Info: FEP CURRENT LAMBDA VALUE     1
Info: FEP COMPARISON LAMBDA VALUE  0.95
Info: FEP INTRA-ALCHEMICAL NON-BONDED INTERACTIONS WILL BE RETAINED
Info: FEP INTRA-ALCHEMICAL BONDED INTERACTIONS WILL BE RETAINED
Info: FEP VDW SHIFTING COEFFICIENT 5
Info: FEP ELEC. ACTIVE FOR ANNIHILATED PARTICLES BETWEEN LAMBDA = 0 AND LAMBDA = 0.5
Info: FEP ELEC. ACTIVE FOR EXNIHILATED PARTICLES BETWEEN LAMBDA = 0.5 AND LAMBDA = 1
Info: FEP VDW ACTIVE FOR ANNIHILATED PARTICLES BETWEEN LAMBDA = 0 AND LAMBDA = 1
Info: FEP VDW ACTIVE FOR EXNIHILATED PARTICLES BETWEEN LAMBDA = 0 AND LAMBDA = 1
Info: FEP BOND ACTIVE FOR ANNIHILATED PARTICLES BETWEEN LAMBDA = 1 AND LAMBDA = 1
Info: FEP BOND ACTIVE FOR EXNIHILATED PARTICLES BETWEEN LAMBDA = 0 AND LAMBDA = 0
Info: LANGEVIN DYNAMICS ACTIVE
Info: LANGEVIN TEMPERATURE   300
Info: LANGEVIN USING BBK INTEGRATOR
Info: LANGEVIN DAMPING COEFFICIENT IS 1 INVERSE PS
Info: LANGEVIN DYNAMICS APPLIED TO HYDROGENS
Info: LANGEVIN PISTON PRESSURE CONTROL ACTIVE
Info:        TARGET PRESSURE IS 1.01325 BAR
Info:     OSCILLATION PERIOD IS 50 FS
Info:             DECAY TIME IS 25 FS
Info:     PISTON TEMPERATURE IS 300 K
Info:       PRESSURE CONTROL IS GROUP-BASED
Info:    INITIAL STRAIN RATE IS -0.000188708 -0.000188708 -0.000188708
Info:       CELL FLUCTUATION IS ISOTROPIC
Info: PARTICLE MESH EWALD (PME) ACTIVE
Info: PME TOLERANCE               1e-06
Info: PME EWALD COEFFICIENT       0.348832
Info: PME INTERPOLATION ORDER     4
Info: PME GRID DIMENSIONS         40 32 32
Info: PME MAXIMUM GRID SPACING    1
Info: PME CALCULATION WILL BE PERFORMED ON GPU
Info: FULL ELECTROSTATIC EVALUATION FREQUENCY      2
Info: USING VERLET I (r-RESPA) MTS SCHEME.
Info: C1 SPLITTING OF LONG RANGE ELECTROSTATICS
Info: PLACING ATOMS IN PATCHES BY HYDROGEN GROUPS
Info: RIGID BONDS TO HYDROGEN : ALL
Info:         ERROR TOLERANCE : 1e-08
Info:          MAX ITERATIONS : 100
Info: RIGID WATER USING SETTLE ALGORITHM
Info: RANDOM NUMBER SEED     1744072694
Info: USE HYDROGEN BONDS?    NO
Info: Using AMBER format force field!
Info: AMBER PARM FILE        mobley_7860938.prmtop
Info: COORDINATE PDB         mobley_7860938.pdb
Info: Exclusions will be read from PARM file!
Info: SCNB (VDW SCALING)     2
Info: USING ARITHMETIC MEAN TO COMBINE L-J SIGMA PARAMETERS
Info: BINARY COORDINATES     mobley_7860938_equil.coor
Info: SUMMARY OF PARAMETERS:
Info: 7 BONDS
Info: 9 ANGLES
Info:   9 HARMONIC
Info:   0 COSINE-BASED
Info: 8 DIHEDRAL
Info: 0 IMPROPER
Info: 0 CROSSTERM
Info: 0 VDW
Info: 28 VDW_PAIRS
Info: 0 NBTHOLE_PAIRS
Info: To read alchdata from file: mobley_7860938.pdb
Info: To read alchflag data from column: 5
Info: STRUCTURE SUMMARY:
Info: 2998 ATOMS
Info: 2997 BONDS
Info: 51 ANGLES
Info: 72 DIHEDRALS
Info: 0 IMPROPERS
Info: 0 CROSSTERMS
Info: 3114 EXCLUSIONS
Info: 2989 RIGID BONDS
Info: ALCH: 0 ATOMS TO DISAPPEAR IN FINAL STATE
Info: ALCH: 28 ATOMS TO APPEAR IN FINAL STATE
Info: 6005 DEGREES OF FREEDOM
Info: 999 HYDROGEN GROUPS
Info: 4 ATOMS IN LARGEST HYDROGEN GROUP
Info: 999 MIGRATION GROUPS
Info: 4 ATOMS IN LARGEST MIGRATION GROUP
Info: TOTAL MASS = 17965.1 amu
Info: TOTAL CHARGE = 0.000199988 e
Info: MASS DENSITY = 0.971176 g/cm^3
Info: ATOM DENSITY = 0.0975981 atoms/A^3
Info: ADDED 0 IMPLICIT EXCLUSIONS
Info: NONBONDED TABLE R-SQUARED SPACING: 0.0625
Info: NONBONDED TABLE SIZE: 705 POINTS
Info: REMOVING COM VELOCITY 0.255144 -0.0200878 0.0399338
Info: Use 3D box decompostion in PME FFT.
Info: Updated CUDA force table with 4096 elements.
Info: Updated CUDA LJ table with 7 x 7 elements.
Info: Found 31 unique exclusion lists needing 116 bytes
TCL: Running for 1500000 steps
ETITLE: TS BOND ANGLE DIHED IMPRP ELECT VDW BOUNDARY MISC KINETIC TOTAL TEMP POTENTIAL TOTALAVG TEMPAVG PRESSURE GPRESSURE VOLUME PRESSAVG GPRESSAVG
ENERGY: 0 1.6512 18.7279 5.1549 0.0000 -10857.9824 1435.0797 0.0000 0.0000 1762.4610 -7634.9077 295.3907 -9397.3687 -7634.9077 295.3907 -195.4163 -121.7322 30717.8258 -195.4163 -121.7322
ENERGY: 300000 1.0699 17.9582 3.7924 0.0000 -10714.3598 1383.2514 0.0000 0.0000 1727.6493 -7580.6386 289.5563 -9308.2879 -7571.3338 294.8928 -350.1766 -276.7178 30657.0003 -96.8978 -16.5958
ENERGY: 600000 2.3637 11.2487 4.1842 0.0000 -10759.4445 1406.5704 0.0000 0.0000 1813.7124 -7521.3650 303.9806 -9335.0774 -7540.3083 299.0071 -139.9037 -88.8013 30928.3542 -19.9024 63.0940
ENERGY: 900000 2.3381 12.7826 3.5506 0.0000 -10889.7007 1420.2609 0.0000 0.0000 1794.3909 -7656.3776 300.7422 -9450.7684 -7567.5030 297.8845 -102.1022 -104.9078 30058.7022 -61.2276 5.8827
ENERGY: 1200000 3.1230 12.0194 5.4874 0.0000 -10777.0355 1372.3723 0.0000 0.0000 1733.3570 -7650.6764 290.5129 -9384.0335 -7576.7156 297.5575 -843.5634 -716.6295 30957.9496 -132.9297 -61.8823
ENERGY: 1500000 3.6251 10.2270 7.4671 0.0000 -10960.2501 1547.1180 0.0000 0.0000 1730.4284 -7661.3845 290.0220 -9391.8129 -7582.2738 297.1571 567.2077 651.5567 30784.9190 -102.2267 -33.5585
TCL: Running FEP window   2: Lambda1 0.95   Lambda2 0.8999999999999999 [dLambda -0.050000000000000044]
TCL: Setting parameter firsttimestep to 0
TCL: Setting parameter alchLambda to 0.95
Info: NONBONDED TABLE R-SQUARED SPACING: 0.0625
Info: NONBONDED TABLE SIZE: 705 POINTS
TCL: Setting parameter alchLambda2 to 0.8999999999999999
Info: NONBONDED TABLE R-SQUARED SPACING: 0.0625
Info: NONBONDED TABLE SIZE: 705 POINTS
TCL: Running for 1500000 steps
ETITLE: TS BOND ANGLE DIHED IMPRP ELECT VDW BOUNDARY MISC KINETIC TOTAL TEMP POTENTIAL TOTALAVG TEMPAVG PRESSURE GPRESSURE VOLUME PRESSAVG GPRESSAVG
ENERGY: 0 3.6251 10.2270 7.4671 0.0000 -10959.3382 1545.6596 0.0000 0.0000 1729.5402 -7662.8192 289.8732 -9392.3594 -7662.8192 289.8732 524.2880 610.0753 30784.9190 524.2880 610.0753
ENERGY: 300000 2.1681 13.7475 2.2147 0.0000 -10900.7518 1525.0293 0.0000 0.0000 1794.4066 -7563.1856 300.7449 -9357.5922 -7590.6745 299.2087 664.3886 702.7888 30605.7772 449.5731 502.3745
ENERGY: 600000 1.6746 14.0779 2.9365 0.0000 -10853.2587 1465.5456 0.0000 0.0000 1759.8489 -7609.1752 294.9530 -9369.0241 -7574.9527 299.1926 481.3626 510.8956 30094.4643 451.5723 496.2579
ENERGY: 900000 3.1980 10.6347 4.1462 0.0000 -10892.4361 1499.1280 0.0000 0.0000 1777.3576 -7597.9716 297.8874 -9375.3292 -7562.5859 300.1281 371.6764 382.0578 30914.9924 342.2553 379.0993
ENERGY: 1200000 1.1363 9.6198 2.7959 0.0000 -10588.5243 1335.6463 0.0000 0.0000 1759.6836 -7479.6424 294.9253 -9239.3260 -7559.0290 299.6042 -774.4138 -743.1307 31405.8129 253.2746 289.5312
ENERGY: 1500000 3.1674 16.7649 3.4851 0.0000 -10853.7579 1458.4517 0.0000 0.0000 1776.9605 -7594.9282 297.8209 -9371.8887 -7564.6859 299.2879 157.4263 207.6618 30691.2294 232.9404 270.7555
TCL: Running FEP window   3: Lambda1 0.8999999999999999 Lambda2 0.8499999999999999 [dLambda -0.050000000000000044]
TCL: Setting parameter firsttimestep to 0
TCL: Setting parameter alchLambda to 0.8999999999999999
Info: NONBONDED TABLE R-SQUARED SPACING: 0.0625
Info: NONBONDED TABLE SIZE: 705 POINTS
TCL: Setting parameter alchLambda2 to 0.8499999999999999
Info: NONBONDED TABLE R-SQUARED SPACING: 0.0625
Info: NONBONDED TABLE SIZE: 705 POINTS
TCL: Running for 1500000 steps
ETITLE: TS BOND ANGLE DIHED IMPRP ELECT VDW BOUNDARY MISC KINETIC TOTAL TEMP POTENTIAL TOTALAVG TEMPAVG PRESSURE GPRESSURE VOLUME PRESSAVG GPRESSAVG
ENERGY: 0 3.1674 16.7649 3.4851 0.0000 -10852.1254 1457.4754 0.0000 0.0000 1776.0707 -7595.1618 297.6718 -9371.2326 -7595.1618 297.6718 105.8233 180.8268 30691.2294 105.8233 180.8268
ENERGY: 300000 1.4216 11.8167 2.5368 0.0000 -10736.7280 1360.1975 0.0000 0.0000 1840.9979 -7519.7576 308.5536 -9360.7555 -7586.2142 301.2448 -308.6409 -320.7353 30454.7958 48.6156 86.0850
ENERGY: 600000 2.5160 12.2092 5.1440 0.0000 -10926.8659 1455.4088 0.0000 0.0000 1750.6849 -7700.9031 293.4171 -9451.5880 -7600.7030 300.0889 -5.2970 79.8084 30447.8154 50.7648 103.0898
ENERGY: 900000 1.4708 11.1240 2.0674 0.0000 -10813.8735 1430.4278 0.0000 0.0000 1818.4776 -7550.3059 304.7792 -9368.7835 -7592.4144 300.0535 -19.0803 2.5780 30728.2099 -38.9365 8.9083
ENERGY: 1200000 5.7118 8.8319 3.2250 0.0000 -10855.1741 1452.3647 0.0000 0.0000 1765.3150 -7619.7258 295.8691 -9385.0409 -7588.0248 298.9755 -243.9849 -168.3840 30907.2966 -133.6244 -82.0428
ENERGY: 1500000 2.2142 13.5782 3.5393 0.0000 -10757.7640 1423.8214 0.0000 0.0000 1753.3880 -7561.2228 293.8701 -9314.6108 -7575.2361 298.6474 -226.0763 -170.7676 30718.2076 -143.4000 -90.8751
TCL: Running FEP window   4: Lambda1 0.8499999999999999 Lambda2 0.7999999999999998 [dLambda -0.050000000000000044]
TCL: Setting parameter firsttimestep to 0
TCL: Setting parameter alchLambda to 0.8499999999999999
Info: NONBONDED TABLE R-SQUARED SPACING: 0.0625
Info: NONBONDED TABLE SIZE: 705 POINTS
TCL: Setting parameter alchLambda2 to 0.7999999999999998
Info: NONBONDED TABLE R-SQUARED SPACING: 0.0625
Info: NONBONDED TABLE SIZE: 705 POINTS
TCL: Running for 1500000 steps
ETITLE: TS BOND ANGLE DIHED IMPRP ELECT VDW BOUNDARY MISC KINETIC TOTAL TEMP POTENTIAL TOTALAVG TEMPAVG PRESSURE GPRESSURE VOLUME PRESSAVG GPRESSAVG
ENERGY: 0 2.2142 13.5782 3.5393 0.0000 -10756.3850 1423.3358 0.0000 0.0000 1752.5066 -7561.2108 293.7224 -9313.7174 -7561.2108 293.7224 -259.0784 -192.7037 30718.2076 -259.0784 -192.7037
ENERGY: 300000 1.4748 13.2975 2.6775 0.0000 -10799.3233 1438.7850 0.0000 0.0000 1788.7969 -7554.2917 299.8047 -9343.0886 -7589.4268 297.1729 42.1835 124.2810 30775.2240 -291.2139 -201.1442
ENERGY: 600000 1.3227 11.7724 1.4928 0.0000 -10935.9061 1461.9806 0.0000 0.0000 1768.8975 -7690.4402 296.4695 -9459.3376 -7592.7632 298.3997 -209.1542 -84.5572 30603.7772 -300.7592 -220.3164
ENERGY: 900000 0.8536 12.5587 3.5423 0.0000 -10835.2252 1479.7648 0.0000 0.0000 1804.9628 -7533.5430 302.5141 -9338.5057 -7575.6464 299.1113 526.6243 635.7188 30363.8705 -126.1406 -52.8573
ENERGY: 1200000 3.3203 22.2812 4.5254 0.0000 -10736.2634 1389.8369 0.0000 0.0000 1772.1398 -7544.1598 297.0129 -9316.2995 -7571.7317 299.4318 -488.7715 -425.0958 31279.5411 -120.2208 -47.6830
ENERGY: 1500000 3.6791 11.2390 4.7751 0.0000 -10746.4363 1423.2547 0.0000 0.0000 1864.8977 -7438.5907 312.5593 -9303.4885 -7560.9636 300.3511 25.3622 116.5528 30464.6654 -132.0902 -61.1977
TCL: Running FEP window   5: Lambda1 0.7999999999999998 Lambda2 0.7499999999999998 [dLambda -0.050000000000000044]
TCL: Setting parameter firsttimestep to 0
TCL: Setting parameter alchLambda to 0.7999999999999998
Info: NONBONDED TABLE R-SQUARED SPACING: 0.0625
Info: NONBONDED TABLE SIZE: 705 POINTS
TCL: Setting parameter alchLambda2 to 0.7499999999999998
Info: NONBONDED TABLE R-SQUARED SPACING: 0.0625
Info: NONBONDED TABLE SIZE: 705 POINTS
TCL: Running for 1500000 steps
ETITLE: TS BOND ANGLE DIHED IMPRP ELECT VDW BOUNDARY MISC KINETIC TOTAL TEMP POTENTIAL TOTALAVG TEMPAVG PRESSURE GPRESSURE VOLUME PRESSAVG GPRESSAVG
ENERGY: 0 3.6791 11.2390 4.7751 0.0000 -10745.6188 1423.5202 0.0000 0.0000 1864.0034 -7438.4021 312.4094 -9302.4055 -7438.4021 312.4094 25.2802 105.7054 30464.6654 25.2802 105.7054
ENERGY: 300000 3.0659 12.9423 4.6499 0.0000 -10904.8115 1466.2254 0.0000 0.0000 1799.9549 -7617.9732 301.6748 -9417.9281 -7555.5261 303.2860 -250.0716 -274.4779 30861.3382 89.8981 150.6930
ENERGY: 600000 2.4355 7.8964 2.9220 0.0000 -10788.9274 1413.1476 0.0000 0.0000 1793.2905 -7569.2354 300.5578 -9362.5259 -7565.5010 302.1069 -317.6334 -233.1537 30795.8819 132.2499 186.6825
ENERGY: 900000 4.4063 12.5847 5.3732 0.0000 -10635.7608 1337.7409 0.0000 0.0000 1784.2981 -7491.3575 299.0507 -9275.6556 -7553.5855 301.6208 -703.9535 -635.7051 30774.2666 -113.3208 -65.2024
ENERGY: 1200000 2.4124 10.5550 3.4175 0.0000 -10754.5207 1403.7994 0.0000 0.0000 1785.3849 -7548.9515 299.2328 -9334.3364 -7554.9634 300.1918 -340.6675 -374.9477 31117.4224 -137.3878 -88.2797
ENERGY: 1500000 2.6339 10.4066 4.4506 0.0000 -10599.5197 1254.9682 0.0000 0.0000 1812.4823 -7514.5780 303.7744 -9327.0604 -7552.3458 300.8095 -1355.9221 -1340.3063 30686.0945 -201.4711 -155.9235
TCL: Running FEP window   6: Lambda1 0.7499999999999998 Lambda2 0.6999999999999997 [dLambda -0.050000000000000044]
TCL: Setting parameter firsttimestep to 0
TCL: Setting parameter alchLambda to 0.7499999999999998
Info: NONBONDED TABLE R-SQUARED SPACING: 0.0625
Info: NONBONDED TABLE SIZE: 705 POINTS
TCL: Setting parameter alchLambda2 to 0.6999999999999997
Info: NONBONDED TABLE R-SQUARED SPACING: 0.0625
Info: NONBONDED TABLE SIZE: 705 POINTS
TCL: Running for 1500000 steps
ETITLE: TS BOND ANGLE DIHED IMPRP ELECT VDW BOUNDARY MISC KINETIC TOTAL TEMP POTENTIAL TOTALAVG TEMPAVG PRESSURE GPRESSURE VOLUME PRESSAVG GPRESSAVG
ENERGY: 0 2.6339 10.4066 4.4506 0.0000 -10597.1541 1253.2677 0.0000 0.0000 1811.6151 -7514.7802 303.6290 -9326.3952 -7514.7802 303.6290 -1442.9046 -1365.0547 30686.0945 -1442.9046 -1365.0547
ENERGY: 300000 1.2571 11.4555 4.2340 0.0000 -10867.9226 1407.0808 0.0000 0.0000 1834.1642 -7609.7309 307.4083 -9443.8951 -7564.1136 304.9218 -501.1135 -427.0955 30374.6164 -253.3737 -196.7261
ENERGY: 600000 3.2349 18.9276 2.2654 0.0000 -10778.2416 1423.7419 0.0000 0.0000 1815.8045 -7514.2673 304.3312 -9330.0718 -7557.3796 301.5958 -365.2357 -278.0599 30840.7504 -162.7921 -96.4265
ENERGY: 900000 1.8862 12.4314 2.7169 0.0000 -10737.7341 1401.3226 0.0000 0.0000 1773.5286 -7545.8484 297.2457 -9319.3770 -7567.6284 301.0703 -154.3959 -59.0313 30541.7267 -202.6098 -126.7764
ENERGY: 1200000 1.8306 15.1398 2.3011 0.0000 -10677.5531 1384.1088 0.0000 0.0000 1795.9879 -7478.1849 301.0099 -9274.1728 -7557.4675 299.9487 -225.3559 -160.6457 30972.7130 -169.1003 -97.3547
ENERGY: 1500000 1.7029 12.0165 4.1593 0.0000 -10731.5999 1388.5430 0.0000 0.0000 1790.0779 -7535.1003 300.0194 -9325.1782 -7551.8884 300.2283 -396.6988 -387.9951 30911.9924 -182.1462 -113.2515
TCL: Running FEP window   7: Lambda1 0.6999999999999997 Lambda2 0.6499999999999997 [dLambda -0.050000000000000044]
TCL: Setting parameter firsttimestep to 0
TCL: Setting parameter alchLambda to 0.6999999999999997
Info: NONBONDED TABLE R-SQUARED SPACING: 0.0625
Info: NONBONDED TABLE SIZE: 705 POINTS
TCL: Setting parameter alchLambda2 to 0.6499999999999997
Info: NONBONDED TABLE R-SQUARED SPACING: 0.0625
Info: NONBONDED TABLE SIZE: 705 POINTS
TCL: Running for 1500000 steps
ETITLE: TS BOND ANGLE DIHED IMPRP ELECT VDW BOUNDARY MISC KINETIC TOTAL TEMP POTENTIAL TOTALAVG TEMPAVG PRESSURE GPRESSURE VOLUME PRESSAVG GPRESSAVG
ENERGY: 0 1.7029 12.0165 4.1593 0.0000 -10730.7283 1388.8333 0.0000 0.0000 1789.2138 -7534.8024 299.8746 -9324.0163 -7534.8024 299.8746 -471.2489 -397.7085 30911.9924 -471.2489 -397.7085
ENERGY: 300000 2.0193 13.0402 2.2914 0.0000 -10863.5941 1461.7230 0.0000 0.0000 1731.7095 -7652.8106 290.2368 -9384.5202 -7598.5241 293.8135 187.2160 166.6273 30454.4595 -179.9731 -144.4983
ENERGY: 600000 3.1263 9.0029 3.0853 0.0000 -10692.6372 1362.0970 0.0000 0.0000 1753.0393 -7562.2863 293.8117 -9315.3256 -7565.8654 296.6409 -747.8966 -675.3461 30992.4926 -316.4965 -269.4181
ENERGY: 900000 2.3034 18.1520 2.6278 0.0000 -10724.4788 1363.6888 0.0000 0.0000 1842.4004 -7495.3065 308.7887 -9337.7069 -7568.5090 298.9636 -365.0852 -315.8946 30555.9846 -319.0052 -262.7306
ENERGY: 1200000 2.5656 17.9217 3.1600 0.0000 -10848.2378 1474.5267 0.0000 0.0000 1741.7436 -7608.3203 291.9185 -9350.0638 -7550.3891 299.1980 189.2629 212.8184 30552.8768 -312.4189 -261.2754
ENERGY: 1500000 1.5226 19.5588 4.3298 0.0000 -10691.5908 1374.7938 0.0000 0.0000 1769.5622 -7521.8237 296.5809 -9291.3859 -7550.5041 299.1759 -722.4781 -602.9778 31469.1353 -283.0602 -233.5666
TCL: Running FEP window   8: Lambda1 0.6499999999999997 Lambda2 0.5999999999999996 [dLambda -0.050000000000000044]
TCL: Setting parameter firsttimestep to 0
TCL: Setting parameter alchLambda to 0.6499999999999997
Info: NONBONDED TABLE R-SQUARED SPACING: 0.0625
Info: NONBONDED TABLE SIZE: 705 POINTS
TCL: Setting parameter alchLambda2 to 0.5999999999999996
Info: NONBONDED TABLE R-SQUARED SPACING: 0.0625
Info: NONBONDED TABLE SIZE: 705 POINTS
TCL: Running for 1500000 steps
ETITLE: TS BOND ANGLE DIHED IMPRP ELECT VDW BOUNDARY MISC KINETIC TOTAL TEMP POTENTIAL TOTALAVG TEMPAVG PRESSURE GPRESSURE VOLUME PRESSAVG GPRESSAVG
ENERGY: 0 1.5226 19.5588 4.3298 0.0000 -10691.0511 1375.3007 0.0000 0.0000 1768.6865 -7521.6527 296.4341 -9290.3392 -7521.6527 296.4341 -690.4954 -609.1707 31469.1353 -690.4954 -609.1707
ENERGY: 300000 2.9423 15.4616 5.3986 0.0000 -10788.6873 1417.8070 0.0000 0.0000 1812.8784 -7534.1993 303.8408 -9347.0777 -7569.5338 295.0940 -484.0993 -410.2914 30836.4190 -175.1531 -86.6761
ENERGY: 600000 3.8371 15.1431 2.8165 0.0000 -10853.1499 1465.6230 0.0000 0.0000 1794.5878 -7571.1424 300.7752 -9365.7302 -7574.8332 297.0038 267.8957 268.3947 30612.8764 -52.8362 16.3526
ENERGY: 900000 1.4732 10.7599 3.9747 0.0000 -10832.6441 1432.2925 0.0000 0.0000 1791.6322 -7592.5115 300.2799 -9384.1438 -7572.4623 297.0064 -233.6653 -203.6734 30599.1118 -87.8105 -26.3398
ENERGY: 1200000 3.7391 11.1610 2.8060 0.0000 -10714.2645 1421.9575 0.0000 0.0000 1834.1697 -7440.4312 307.4092 -9274.6009 -7555.5399 298.1741 74.1127 27.4993 31102.1037 -5.7708 39.8231
ENERGY: 1500000 2.9186 14.0127 5.6036 0.0000 -11047.1338 1585.1201 0.0000 0.0000 1794.0188 -7645.4599 300.6799 -9439.4787 -7566.8188 298.9426 851.2304 925.7669 30116.1990 42.1327 88.4791
TCL: Running FEP window   9: Lambda1 0.5999999999999996 Lambda2 0.5499999999999996 [dLambda -0.050000000000000044]
TCL: Setting parameter firsttimestep to 0
TCL: Setting parameter alchLambda to 0.5999999999999996
Info: NONBONDED TABLE R-SQUARED SPACING: 0.0625
Info: NONBONDED TABLE SIZE: 705 POINTS
TCL: Setting parameter alchLambda2 to 0.5499999999999996
Info: NONBONDED TABLE R-SQUARED SPACING: 0.0625
Info: NONBONDED TABLE SIZE: 705 POINTS
TCL: Running for 1500000 steps
ETITLE: TS BOND ANGLE DIHED IMPRP ELECT VDW BOUNDARY MISC KINETIC TOTAL TEMP POTENTIAL TOTALAVG TEMPAVG PRESSURE GPRESSURE VOLUME PRESSAVG GPRESSAVG
ENERGY: 0 2.9186 14.0127 5.6036 0.0000 -11047.0585 1585.9465 0.0000 0.0000 1793.1514 -7645.4256 300.5345 -9438.5770 -7645.4256 300.5345 845.5180 921.5893 30116.1990 845.5180 921.5893
ENERGY: 300000 1.9464 15.2840 2.9268 0.0000 -10868.9621 1484.9882 0.0000 0.0000 1789.4205 -7574.3962 299.9092 -9363.8167 -7590.6528 296.5325 594.3364 655.6659 30126.8946 272.0035 320.3394
ENERGY: 600000 2.6937 12.9735 3.6282 0.0000 -10782.4449 1476.9740 0.0000 0.0000 1829.1191 -7457.0565 306.5627 -9286.1755 -7567.0915 298.1592 495.6425 580.5551 30888.5891 207.4967 271.7482
ENERGY: 900000 2.6743 16.2676 2.7308 0.0000 -10873.0057 1497.2913 0.0000 0.0000 1825.4494 -7528.5923 305.9477 -9354.0417 -7572.4408 299.0505 294.2235 316.9914 30712.3304 140.3177 194.7642
ENERGY: 1200000 3.5196 17.6768 3.8881 0.0000 -10886.0593 1445.5971 0.0000 0.0000 1810.3064 -7605.0714 303.4097 -9415.3777 -7579.5527 298.4026 -100.6095 -70.7743 30447.2362 172.2242 219.2372
ENERGY: 1500000 1.3258 11.9818 3.0910 0.0000 -10927.5085 1493.2805 0.0000 0.0000 1794.6838 -7623.1456 300.7913 -9417.8294 -7582.5862 298.1826 234.1821 274.1616 30472.1803 135.2385 187.6564
TCL: Running FEP window  10: Lambda1 0.5499999999999996 Lambda2 0.4999999999999996 [dLambda -0.04999999999999999]
TCL: Setting parameter firsttimestep to 0
TCL: Setting parameter alchLambda to 0.5499999999999996
Info: NONBONDED TABLE R-SQUARED SPACING: 0.0625
Info: NONBONDED TABLE SIZE: 705 POINTS
TCL: Setting parameter alchLambda2 to 0.4999999999999996
Info: NONBONDED TABLE R-SQUARED SPACING: 0.0625
Info: NONBONDED TABLE SIZE: 705 POINTS
TCL: Running for 1500000 steps
ETITLE: TS BOND ANGLE DIHED IMPRP ELECT VDW BOUNDARY MISC KINETIC TOTAL TEMP POTENTIAL TOTALAVG TEMPAVG PRESSURE GPRESSURE VOLUME PRESSAVG GPRESSAVG
ENERGY: 0 1.3258 11.9818 3.0910 0.0000 -10927.1478 1492.6191 0.0000 0.0000 1793.8276 -7624.3024 300.6478 -9418.1301 -7624.3024 300.6478 183.3068 258.6797 30472.1803 183.3068 258.6797
ENERGY: 300000 2.2163 12.5496 6.1632 0.0000 -10859.4058 1433.7901 0.0000 0.0000 1771.5401 -7633.1466 296.9124 -9404.6867 -7591.7644 298.4195 -175.2774 -130.2501 30470.7583 128.0789 164.1944
ENERGY: 600000 1.0144 14.7244 2.1534 0.0000 -10990.4106 1599.7876 0.0000 0.0000 1865.1022 -7507.6286 312.5935 -9372.7308 -7569.6228 301.3823 1268.5597 1303.4608 30385.8433 288.5036 337.1297
ENERGY: 900000 1.8025 13.8444 3.1535 0.0000 -10820.8256 1467.2847 0.0000 0.0000 1798.0270 -7536.7134 301.3517 -9334.7405 -7569.4905 301.1544 275.1639 285.8368 30631.3531 264.3020 319.2212
ENERGY: 1200000 5.6371 17.6253 4.5621 0.0000 -10948.5364 1551.1604 0.0000 0.0000 1857.4374 -7512.1141 311.3089 -9369.5515 -7572.9555 301.1810 568.7270 629.0390 30510.5809 258.7388 313.3931
ENERGY: 1500000 2.1477 10.2417 3.4105 0.0000 -10691.4260 1340.0051 0.0000 0.0000 1818.0950 -7517.5259 304.7151 -9335.6209 -7572.7571 301.0480 -810.6605 -721.7430 30782.7112 135.4475 202.4782
TCL: Running FEP window  11: Lambda1 0.4999999999999996 Lambda2 0.4499999999999996 [dLambda -0.04999999999999999]
TCL: Setting parameter firsttimestep to 0
TCL: Setting parameter alchLambda to 0.4999999999999996
Info: NONBONDED TABLE R-SQUARED SPACING: 0.0625
Info: NONBONDED TABLE SIZE: 705 POINTS
TCL: Setting parameter alchLambda2 to 0.4499999999999996
Info: NONBONDED TABLE R-SQUARED SPACING: 0.0625
Info: NONBONDED TABLE SIZE: 705 POINTS
TCL: Running for 1500000 steps
ETITLE: TS BOND ANGLE DIHED IMPRP ELECT VDW BOUNDARY MISC KINETIC TOTAL TEMP POTENTIAL TOTALAVG TEMPAVG PRESSURE GPRESSURE VOLUME PRESSAVG GPRESSAVG
ENERGY: 0 2.1477 10.2417 3.4105 0.0000 -10691.1993 1340.5125 0.0000 0.0000 1817.2437 -7517.6432 304.5724 -9334.8869 -7517.6432 304.5724 -812.9377 -725.3051 30782.7112 -812.9377 -725.3051
ENERGY: 300000 2.1836 10.6780 5.0488 0.0000 -10779.1889 1457.6872 0.0000 0.0000 1782.3295 -7521.2619 298.7207 -9303.5913 -7572.6710 299.5946 -44.9388 50.1028 30694.9746 -82.6845 16.3165
ENERGY: 600000 2.0742 13.9219 3.0351 0.0000 -10816.2325 1476.2672 0.0000 0.0000 1782.2425 -7538.6916 298.7061 -9320.9341 -7536.3155 300.0228 240.0832 301.4963 30745.9235 -356.4388 -260.3929
ENERGY: 900000 5.0793 16.0609 2.3133 0.0000 -10827.5502 1447.9695 0.0000 0.0000 1849.4522 -7506.6750 309.9706 -9356.1272 -7538.2325 301.0210 -35.0013 9.7702 30578.3723 -258.4482 -180.3447
ENERGY: 1200000 2.1115 7.3249 2.3465 0.0000 -10673.7108 1427.3850 0.0000 0.0000 1793.9531 -7440.5898 300.6689 -9234.5429 -7534.8159 300.9441 -225.7416 -165.7788 31183.4790 -224.4156 -146.3553
ENERGY: 1500000 4.2040 12.6022 4.4251 0.0000 -10691.5522 1383.3030 0.0000 0.0000 1759.9127 -7527.1052 294.9636 -9287.0179 -7534.0858 300.7139 -535.4623 -462.7016 30852.3967 -284.1014 -210.6121
TCL: Running FEP window  12: Lambda1 0.4499999999999996 Lambda2 0.39999999999999963 [dLambda -0.04999999999999999]
TCL: Setting parameter firsttimestep to 0
TCL: Setting parameter alchLambda to 0.4499999999999996
Info: NONBONDED TABLE R-SQUARED SPACING: 0.0625
Info: NONBONDED TABLE SIZE: 705 POINTS
TCL: Setting parameter alchLambda2 to 0.39999999999999963
Info: NONBONDED TABLE R-SQUARED SPACING: 0.0625
Info: NONBONDED TABLE SIZE: 705 POINTS
TCL: Running for 1500000 steps
ETITLE: TS BOND ANGLE DIHED IMPRP ELECT VDW BOUNDARY MISC KINETIC TOTAL TEMP POTENTIAL TOTALAVG TEMPAVG PRESSURE GPRESSURE VOLUME PRESSAVG GPRESSAVG
ENERGY: 0 4.2040 12.6022 4.4251 0.0000 -10691.5516 1383.6962 0.0000 0.0000 1759.0055 -7527.6185 294.8116 -9286.6240 -7527.6185 294.8116 -559.0368 -471.3665 30852.3967 -559.0368 -471.3665
ENERGY: 300000 2.9669 10.9320 2.1480 0.0000 -10789.7468 1460.6828 0.0000 0.0000 1753.6505 -7559.3667 293.9141 -9313.0171 -7540.7893 296.3841 441.4176 470.5254 30491.0009 366.7846 433.4214
ENERGY: 600000 3.1270 12.8734 4.7730 0.0000 -10760.9637 1448.9567 0.0000 0.0000 1774.7131 -7516.5203 297.4442 -9291.2335 -7528.5255 299.8028 -362.7185 -318.4570 31582.5792 200.3560 261.3486
ENERGY: 900000 0.9066 12.4039 3.4089 0.0000 -10700.0165 1357.2534 0.0000 0.0000 1760.9276 -7565.1162 295.1337 -9326.0438 -7523.3417 299.9717 -783.0425 -712.8018 31077.5037 -12.3642 50.1097
ENERGY: 1200000 3.3304 11.9713 2.2127 0.0000 -10711.4251 1394.5730 0.0000 0.0000 1743.7383 -7555.5994 292.2528 -9299.3377 -7529.5322 299.5572 -256.5461 -220.4965 30690.8070 -74.1664 -22.9157
ENERGY: 1500000 0.3679 13.9474 3.4236 0.0000 -10892.8532 1531.0404 0.0000 0.0000 1782.8774 -7561.1964 298.8126 -9344.0738 -7536.8672 299.1134 805.9899 892.0382 30434.0613 -53.8834 -0.5607
TCL: Running FEP window  13: Lambda1 0.39999999999999963 Lambda2 0.34999999999999964 [dLambda -0.04999999999999999]
TCL: Setting parameter firsttimestep to 0
TCL: Setting parameter alchLambda to 0.39999999999999963
Info: NONBONDED TABLE R-SQUARED SPACING: 0.0625
Info: NONBONDED TABLE SIZE: 705 POINTS
TCL: Setting parameter alchLambda2 to 0.34999999999999964
Info: NONBONDED TABLE R-SQUARED SPACING: 0.0625
Info: NONBONDED TABLE SIZE: 705 POINTS
TCL: Running for 1500000 steps
ETITLE: TS BOND ANGLE DIHED IMPRP ELECT VDW BOUNDARY MISC KINETIC TOTAL TEMP POTENTIAL TOTALAVG TEMPAVG PRESSURE GPRESSURE VOLUME PRESSAVG GPRESSAVG
ENERGY: 0 0.3679 13.9474 3.4236 0.0000 -10892.8533 1531.8163 0.0000 0.0000 1781.9947 -7561.3034 298.6646 -9343.2980 -7561.3034 298.6646 810.5718 891.6091 30434.0613 810.5718 891.6091
ENERGY: 300000 5.6743 15.7797 2.2271 0.0000 -10778.1301 1450.6557 0.0000 0.0000 1775.6598 -7528.1336 297.6029 -9303.7933 -7534.0333 300.8029 -39.5296 -11.7893 30933.4084 110.0926 154.4420
ENERGY: 600000 0.9870 13.6799 2.9709 0.0000 -10896.0161 1510.8345 0.0000 0.0000 1761.3846 -7606.1592 295.2103 -9367.5439 -7562.3718 297.8250 509.5198 589.8522 30428.8515 -70.7059 -14.3294
ENERGY: 900000 1.5680 8.8100 5.6474 0.0000 -10824.7855 1418.1112 0.0000 0.0000 1795.5154 -7595.1335 300.9307 -9390.6488 -7559.4190 298.5286 -388.1920 -302.6973 30670.0121 -118.6264 -52.9409
ENERGY: 1200000 3.6683 15.2767 4.2361 0.0000 -10801.4182 1487.0982 0.0000 0.0000 1778.6680 -7512.4709 298.1071 -9291.1390 -7564.0594 298.5435 264.3068 253.3860 31109.7239 -66.4564 -7.7650
ENERGY: 1500000 2.1496 13.9832 5.8044 0.0000 -10717.9914 1331.9955 0.0000 0.0000 1817.2259 -7546.8329 304.5694 -9364.0588 -7560.6259 299.1493 -766.7510 -775.5962 30680.9451 -97.3759 -38.8566
TCL: Running FEP window  14: Lambda1 0.34999999999999964 Lambda2 0.29999999999999966 [dLambda -0.04999999999999999]
TCL: Setting parameter firsttimestep to 0
TCL: Setting parameter alchLambda to 0.34999999999999964
Info: NONBONDED TABLE R-SQUARED SPACING: 0.0625
Info: NONBONDED TABLE SIZE: 705 POINTS
TCL: Setting parameter alchLambda2 to 0.29999999999999966
Info: NONBONDED TABLE R-SQUARED SPACING: 0.0625
Info: NONBONDED TABLE SIZE: 705 POINTS
TCL: Running for 1500000 steps
ETITLE: TS BOND ANGLE DIHED IMPRP ELECT VDW BOUNDARY MISC KINETIC TOTAL TEMP POTENTIAL TOTALAVG TEMPAVG PRESSURE GPRESSURE VOLUME PRESSAVG GPRESSAVG
ENERGY: 0 2.1496 13.9832 5.8044 0.0000 -10717.9914 1332.5422 0.0000 0.0000 1816.3597 -7547.1523 304.4242 -9363.5120 -7547.1523 304.4242 -852.1174 -778.4891 30680.9451 -852.1174 -778.4891
ENERGY: 300000 2.5371 13.8104 3.2622 0.0000 -10740.0510 1394.4785 0.0000 0.0000 1819.5238 -7506.4390 304.9546 -9325.9629 -7528.1035 300.6994 -623.9528 -509.9561 30841.0167 -677.0376 -559.1086
ENERGY: 600000 3.9737 9.5811 5.9502 0.0000 -10849.0687 1429.3809 0.0000 0.0000 1804.2805 -7595.9023 302.3998 -9400.1828 -7537.8087 299.3969 -441.3473 -382.8684 30542.6839 -592.7588 -482.8680
ENERGY: 900000 1.0621 10.1473 5.1020 0.0000 -10813.5715 1465.5341 0.0000 0.0000 1729.4190 -7602.3070 289.8529 -9331.7260 -7553.4920 298.5127 -143.1302 -139.5039 31084.8471 -457.9135 -370.6776
ENERGY: 1200000 2.1698 8.8261 4.0562 0.0000 -10754.6451 1423.0462 0.0000 0.0000 1795.1228 -7521.4240 300.8649 -9316.5468 -7553.8229 298.8601 -250.7739 -210.2622 30921.4441 -428.3940 -351.9783
ENERGY: 1500000 0.6990 12.3462 3.7487 0.0000 -10771.5152 1406.5114 0.0000 0.0000 1806.3119 -7541.8980 302.7402 -9348.2099 -7563.4900 298.4311 -324.3436 -241.2438 30669.4458 -374.0934 -299.2142
TCL: Running FEP window  15: Lambda1 0.29999999999999966 Lambda2 0.24999999999999967 [dLambda -0.04999999999999999]
TCL: Setting parameter firsttimestep to 0
TCL: Setting parameter alchLambda to 0.29999999999999966
Info: NONBONDED TABLE R-SQUARED SPACING: 0.0625
Info: NONBONDED TABLE SIZE: 705 POINTS
TCL: Setting parameter alchLambda2 to 0.24999999999999967
Info: NONBONDED TABLE R-SQUARED SPACING: 0.0625
Info: NONBONDED TABLE SIZE: 705 POINTS
TCL: Running for 1500000 steps
ETITLE: TS BOND ANGLE DIHED IMPRP ELECT VDW BOUNDARY MISC KINETIC TOTAL TEMP POTENTIAL TOTALAVG TEMPAVG PRESSURE GPRESSURE VOLUME PRESSAVG GPRESSAVG
ENERGY: 0 0.6990 12.3462 3.7487 0.0000 -10771.5153 1406.7152 0.0000 0.0000 1805.3963 -7542.6099 302.5868 -9348.0062 -7542.6099 302.5868 -319.4137 -243.4237 30669.4458 -319.4137 -243.4237
ENERGY: 300000 5.5284 13.5617 5.7716 0.0000 -10755.5344 1484.1684 0.0000 0.0000 1806.2245 -7440.2798 302.7256 -9246.5043 -7539.7975 302.0212 225.4097 272.8054 30953.9118 15.5915 70.0745
ENERGY: 600000 2.4211 8.6702 4.4415 0.0000 -10893.5774 1520.6718 0.0000 0.0000 1796.5754 -7560.7973 301.1084 -9357.3727 -7521.0525 301.5826 499.2854 532.9239 30530.6540 41.6769 103.3604
ENERGY: 900000 1.5850 14.9535 2.8252 0.0000 -10927.7190 1585.1976 0.0000 0.0000 1839.3015 -7483.8562 308.2693 -9323.1577 -7539.6869 301.3418 1100.6467 1171.5856 30510.7437 220.2315 286.2725
ENERGY: 1200000 1.0270 21.2100 2.7181 0.0000 -10709.8773 1413.7633 0.0000 0.0000 1826.0382 -7445.1207 306.0464 -9271.1589 -7532.0045 302.7922 -211.9084 -202.0747 30978.8671 120.3457 171.3656
ENERGY: 1500000 4.7109 13.0546 4.1355 0.0000 -10857.0003 1409.5975 0.0000 0.0000 1749.7831 -7675.7188 293.2659 -9425.5018 -7541.8019 301.9661 -630.5702 -512.6009 30576.6180 46.1639 100.6907
TCL: Running FEP window  16: Lambda1 0.24999999999999967 Lambda2 0.19999999999999968 [dLambda -0.04999999999999999]
TCL: Setting parameter firsttimestep to 0
TCL: Setting parameter alchLambda to 0.24999999999999967
Info: NONBONDED TABLE R-SQUARED SPACING: 0.0625
Info: NONBONDED TABLE SIZE: 705 POINTS
TCL: Setting parameter alchLambda2 to 0.19999999999999968
Info: NONBONDED TABLE R-SQUARED SPACING: 0.0625
Info: NONBONDED TABLE SIZE: 705 POINTS
TCL: Running for 1500000 steps
ETITLE: TS BOND ANGLE DIHED IMPRP ELECT VDW BOUNDARY MISC KINETIC TOTAL TEMP POTENTIAL TOTALAVG TEMPAVG PRESSURE GPRESSURE VOLUME PRESSAVG GPRESSAVG
ENERGY: 0 4.7109 13.0546 4.1355 0.0000 -10856.9986 1409.7038 0.0000 0.0000 1748.8829 -7676.5109 293.1150 -9425.3938 -7676.5109 293.1150 -594.7763 -515.7860 30576.6180 -594.7763 -515.7860
ENERGY: 300000 4.1493 10.2527 2.6783 0.0000 -10767.2050 1476.0971 0.0000 0.0000 1818.2631 -7455.7646 304.7433 -9274.0277 -7529.7952 300.0652 283.3411 342.7882 30617.9064 155.9015 231.9145
ENERGY: 600000 2.0379 20.1364 3.4453 0.0000 -10748.6488 1392.3591 0.0000 0.0000 1732.2857 -7598.3845 290.3333 -9330.6702 -7543.9157 298.3844 -629.3455 -593.8386 30907.2618 19.3186 73.7411
ENERGY: 900000 3.1878 11.2199 1.8182 0.0000 -10970.9018 1566.9647 0.0000 0.0000 1793.3356 -7594.3756 300.5654 -9387.7112 -7540.0233 300.0992 726.3270 751.6047 30475.0831 58.7656 112.1569
ENERGY: 1200000 1.0920 11.3082 4.2257 0.0000 -11093.5799 1600.2657 0.0000 0.0000 1811.7245 -7664.9637 303.6474 -9476.6882 -7555.2950 300.1528 958.8997 992.3792 30069.1966 33.8291 91.0893
ENERGY: 1500000 2.1416 10.2782 3.7119 0.0000 -10676.0340 1421.7783 0.0000 0.0000 1755.1266 -7482.9973 294.1615 -9238.1239 -7555.0572 299.5746 -170.7080 -65.9020 31187.6083 66.0008 129.8416
TCL: Running FEP window  17: Lambda1 0.19999999999999968 Lambda2 0.1499999999999997 [dLambda -0.04999999999999999]
TCL: Setting parameter firsttimestep to 0
TCL: Setting parameter alchLambda to 0.19999999999999968
Info: NONBONDED TABLE R-SQUARED SPACING: 0.0625
Info: NONBONDED TABLE SIZE: 705 POINTS
TCL: Setting parameter alchLambda2 to 0.1499999999999997
Info: NONBONDED TABLE R-SQUARED SPACING: 0.0625
Info: NONBONDED TABLE SIZE: 705 POINTS
TCL: Running for 1500000 steps
ETITLE: TS BOND ANGLE DIHED IMPRP ELECT VDW BOUNDARY MISC KINETIC TOTAL TEMP POTENTIAL TOTALAVG TEMPAVG PRESSURE GPRESSURE VOLUME PRESSAVG GPRESSAVG
ENERGY: 0 2.1416 10.2782 3.7119 0.0000 -10676.0339 1422.1229 0.0000 0.0000 1754.2383 -7483.5410 294.0126 -9237.7792 -7483.5410 294.0126 -147.3864 -69.2739 31187.6083 -147.3864 -69.2739
ENERGY: 300000 1.2804 8.2185 3.4986 0.0000 -10863.8588 1513.8110 0.0000 0.0000 1745.8814 -7591.1688 292.6120 -9337.0502 -7557.6791 294.2684 242.8147 270.4255 30955.6564 -215.3526 -153.2199
ENERGY: 600000 2.0476 13.8589 3.2778 0.0000 -10699.4412 1393.5578 0.0000 0.0000 1794.3393 -7492.3598 300.7336 -9286.6991 -7543.0197 297.1916 26.7117 -1.2498 30344.8206 39.6334 89.9685
ENERGY: 900000 1.8904 9.0924 5.0281 0.0000 -10855.7042 1478.4467 0.0000 0.0000 1782.2426 -7579.0039 298.7062 -9361.2465 -7548.7727 298.5185 -18.3584 54.0637 30748.9079 -24.8488 26.2917
ENERGY: 1200000 2.2823 13.5814 2.3839 0.0000 -10788.7757 1441.0157 0.0000 0.0000 1794.8604 -7534.6520 300.8209 -9329.5124 -7547.8745 298.6967 -70.4728 18.9701 30598.4971 -97.6905 -34.2365
ENERGY: 1500000 1.9608 11.6972 4.3892 0.0000 -10858.5124 1491.4317 0.0000 0.0000 1791.1252 -7557.9083 300.1949 -9349.0335 -7548.6191 299.2082 268.3667 358.6799 30430.6796 -112.5165 -44.2101
TCL: Running FEP window  18: Lambda1 0.1499999999999997 Lambda2 0.09999999999999969 [dLambda -0.05 ]
TCL: Setting parameter firsttimestep to 0
TCL: Setting parameter alchLambda to 0.1499999999999997
Info: NONBONDED TABLE R-SQUARED SPACING: 0.0625
Info: NONBONDED TABLE SIZE: 705 POINTS
TCL: Setting parameter alchLambda2 to 0.09999999999999969
Info: NONBONDED TABLE R-SQUARED SPACING: 0.0625
Info: NONBONDED TABLE SIZE: 705 POINTS
TCL: Running for 1500000 steps
ETITLE: TS BOND ANGLE DIHED IMPRP ELECT VDW BOUNDARY MISC KINETIC TOTAL TEMP POTENTIAL TOTALAVG TEMPAVG PRESSURE GPRESSURE VOLUME PRESSAVG GPRESSAVG
ENERGY: 0 1.9608 11.6972 4.3892 0.0000 -10858.5101 1491.8837 0.0000 0.0000 1790.2398 -7558.3394 300.0465 -9348.5792 -7558.3394 300.0465 268.9407 354.7859 30430.6796 268.9407 354.7859
ENERGY: 300000 1.7826 14.5751 4.8737 0.0000 -10928.1002 1447.6591 0.0000 0.0000 1764.1932 -7695.0165 295.6811 -9459.2097 -7613.5381 294.4980 -451.1364 -360.2181 30310.4626 -103.9632 -45.7729
ENERGY: 600000 0.9871 15.7586 4.1084 0.0000 -10707.4056 1361.9253 0.0000 0.0000 1837.9174 -7486.7088 308.0373 -9324.6262 -7575.3987 296.7795 -815.5726 -712.2680 30879.5240 -409.8785 -347.6087
ENERGY: 900000 1.3631 13.6964 5.1900 0.0000 -10798.5399 1411.8839 0.0000 0.0000 1810.4866 -7555.9199 303.4399 -9366.4065 -7565.4081 298.1985 -293.2086 -229.7519 30377.9843 -291.9944 -226.5056
ENERGY: 1200000 1.9669 20.7096 2.5353 0.0000 -10918.4826 1519.7618 0.0000 0.0000 1805.1632 -7568.3458 302.5477 -9373.5090 -7568.2677 298.2100 603.9277 612.1586 30538.7157 -88.4233 -33.0641
ENERGY: 1500000 1.0194 10.2366 3.5681 0.0000 -10864.4771 1408.8285 0.0000 0.0000 1796.1206 -7644.7039 301.0321 -9440.8245 -7567.5018 299.0926 -182.8337 -164.5471 29772.8671 -48.6366 3.5618
TCL: Running FEP window  19: Lambda1 0.09999999999999969 Lambda2 0.049999999999999684 [dLambda -0.05 ]
TCL: Setting parameter firsttimestep to 0
TCL: Setting parameter alchLambda to 0.09999999999999969
Info: NONBONDED TABLE R-SQUARED SPACING: 0.0625
Info: NONBONDED TABLE SIZE: 705 POINTS
TCL: Setting parameter alchLambda2 to 0.049999999999999684
Info: NONBONDED TABLE R-SQUARED SPACING: 0.0625
Info: NONBONDED TABLE SIZE: 705 POINTS
TCL: Running for 1500000 steps
ETITLE: TS BOND ANGLE DIHED IMPRP ELECT VDW BOUNDARY MISC KINETIC TOTAL TEMP POTENTIAL TOTALAVG TEMPAVG PRESSURE GPRESSURE VOLUME PRESSAVG GPRESSAVG
ENERGY: 0 1.0194 10.2366 3.5681 0.0000 -10864.4784 1407.6289 0.0000 0.0000 1795.2290 -7646.7964 300.8827 -9442.0254 -7646.7964 300.8827 -274.8028 -179.5110 29772.8671 -274.8028 -179.5110
ENERGY: 300000 3.4228 16.3833 3.6432 0.0000 -10742.0845 1398.1342 0.0000 0.0000 1784.9898 -7535.5113 299.1666 -9320.5011 -7562.0050 301.3671 -309.2277 -320.1361 30364.5476 -182.4847 -132.3562
ENERGY: 600000 3.4479 16.9175 4.0224 0.0000 -10733.2853 1406.4344 0.0000 0.0000 1784.9616 -7517.5015 299.1619 -9302.4631 -7574.0584 300.5169 -528.8058 -455.8386 30906.6350 -10.9792 41.0314
ENERGY: 900000 3.1101 15.7146 3.3266 0.0000 -10810.6465 1434.3488 0.0000 0.0000 1768.3640 -7585.7825 296.3801 -9354.1464 -7565.2883 300.7200 -515.5865 -443.5236 30958.7636 -10.1448 51.6982
ENERGY: 1200000 2.5270 17.8563 3.3184 0.0000 -10849.1585 1491.8209 0.0000 0.0000 1769.8981 -7563.7377 296.6372 -9333.6359 -7554.5674 301.1961 265.5278 287.7810 30471.4242 -18.0997 38.6269
ENERGY: 1500000 2.7241 9.1642 2.2829 0.0000 -10770.6024 1448.5517 0.0000 0.0000 1807.4337 -7500.4458 302.9282 -9307.8795 -7552.9130 301.4016 100.0916 129.3422 30641.2404 8.1593 65.9372
TCL: Running FEP window  20: Lambda1 0.049999999999999684 Lambda2 0.0    [dLambda -0.049999999999999684]
TCL: Setting parameter firsttimestep to 0
TCL: Setting parameter alchLambda to 0.049999999999999684
Info: NONBONDED TABLE R-SQUARED SPACING: 0.0625
Info: NONBONDED TABLE SIZE: 705 POINTS
TCL: Setting parameter alchLambda2 to 0.0
Info: NONBONDED TABLE R-SQUARED SPACING: 0.0625
Info: NONBONDED TABLE SIZE: 705 POINTS
TCL: Running for 1500000 steps
ETITLE: TS BOND ANGLE DIHED IMPRP ELECT VDW BOUNDARY MISC KINETIC TOTAL TEMP POTENTIAL TOTALAVG TEMPAVG PRESSURE GPRESSURE VOLUME PRESSAVG GPRESSAVG
ENERGY: 0 2.7241 9.1642 2.2829 0.0000 -10770.6046 1448.4053 0.0000 0.0000 1806.5353 -7501.4928 302.7777 -9308.0281 -7501.4928 302.7777 36.6310 121.9028 30641.2404 36.6310 121.9028
ENERGY: 300000 1.6029 11.2063 2.3738 0.0000 -10678.9535 1393.5805 0.0000 0.0000 1765.7666 -7504.4234 295.9448 -9270.1900 -7565.7977 298.2048 -328.2942 -263.4840 30617.3987 -360.5597 -281.4423
ENERGY: 600000 4.2429 11.9638 5.6628 0.0000 -10775.5771 1430.7498 0.0000 0.0000 1821.5705 -7501.3873 305.2976 -9322.9579 -7540.4613 301.1145 26.5672 41.6262 30422.9841 -287.6283 -223.2630
ENERGY: 900000 2.4918 9.6765 1.7450 0.0000 -10804.5187 1420.3543 0.0000 0.0000 1793.2568 -7576.9943 300.5522 -9370.2511 -7546.1596 300.4217 -478.1230 -345.4566 30986.4964 -206.1013 -134.0841
ENERGY: 1200000 1.1582 13.9771 2.9205 0.0000 -10819.2658 1438.5913 0.0000 0.0000 1818.6594 -7543.9592 304.8097 -9362.6186 -7550.2300 301.1255 -235.4582 -182.7105 30580.9423 -218.3026 -148.1056
ENERGY: 1500000 0.9791 16.9595 4.3748 0.0000 -10773.6611 1442.0207 0.0000 0.0000 1783.4616 -7525.8653 298.9105 -9309.3269 -7553.1547 299.6343 237.7705 262.6004 30255.3716 -149.7146 -81.6773
TCL: Exiting due to exit command.
