Info: SIMULATION PARAMETERS:
Info: TIMESTEP               2
Info: NUMBER OF STEPS        0
Info: STEPS PER CYCLE        10
Info: PERIODIC CELL BASIS 1  31.8169 0 0
Info: PERIODIC CELL BASIS 2  0 29.4389 0
Info: PERIODIC CELL BASIS 3  0 0 32.8685
Info: PERIODIC CELL CENTER   0 0 0
Info: WRAPPING WATERS AROUND PERIODIC BOUNDARIES ON OUTPUT.
Info: WRAPPING ALL CLUSTERS AROUND PERIODIC BOUNDARIES ON OUTPUT.
Info: FIRST LDB TIMESTEP     50
Info: LAST LDB TIMESTEP     -1
Info: HOM BACKGROUND SCALING 1
Info: PME BACKGROUND SCALING 1
Info: MIN ATOMS PER PATCH    40
Info: EMPTY PATCH LOAD       40 ATOMS
Info: VELOCITY FILE          mobley_2958326_equil.vel
Info: CENTER OF MASS MOVING INITIALLY? NO
Info: DIELECTRIC             1
Info: EXCLUDE                SCALED ONE-FOUR
Info: 1-4 ELECTROSTATICS SCALED BY 0.833333
Info: MODIFIED 1-4 VDW PARAMETERS WILL BE USED
Info: DCD FILENAME           mobley_2958326_prod.dcd
Info: DCD FREQUENCY          100000
Info: DCD FIRST STEP         100000
Info: DCD FILE WILL CONTAIN UNIT CELL DATA
Info: XST FILENAME           mobley_2958326_prod.xst
Info: XST FREQUENCY          100000
Info: NO VELOCITY DCD OUTPUT
Info: NO FORCE DCD OUTPUT
Info: OUTPUT FILENAME        mobley_2958326_prod
Info: BINARY OUTPUT FILES WILL BE USED
Info: RESTART FILENAME       mobley_2958326_prod.restart
Info: RESTART FREQUENCY      100000
Info: BINARY RESTART FILES WILL BE USED
Info: CUTOFF                 9
Info: PAIRLIST DISTANCE      11
Info: PAIRLIST SHRINK RATE   0.01
Info: PAIRLIST GROW RATE     0.01
Info: PAIRLIST TRIGGER       0.3
Info: PAIRLISTS PER CYCLE    2
Info: PAIRLISTS ENABLED
Info: MARGIN                 2
Info: HYDROGEN GROUP CUTOFF  2.5
Info: PATCH DIMENSION        15.5
Info: ENERGY OUTPUT STEPS    100000
Info: ENERGY EVALUATION STEPS    100000
Info: OUTPUT ENERGY PRECISION 4
Info: CROSSTERM ENERGY INCLUDED IN DIHEDRAL
Info: TIMING OUTPUT STEPS    1000000
Info: PRESSURE OUTPUT STEPS  100000
Info: ALCHEMICAL FEP ON
Info: FEP CURRENT LAMBDA VALUE     1
Info: FEP COMPARISON LAMBDA VALUE  0.95
Info: FEP INTRA-ALCHEMICAL NON-BONDED INTERACTIONS WILL BE RETAINED
Info: FEP INTRA-ALCHEMICAL BONDED INTERACTIONS WILL BE RETAINED
Info: FEP VDW SHIFTING COEFFICIENT 5
Info: FEP ELEC. ACTIVE FOR ANNIHILATED PARTICLES BETWEEN LAMBDA = 0 AND LAMBDA = 0.5
Info: FEP ELEC. ACTIVE FOR EXNIHILATED PARTICLES BETWEEN LAMBDA = 0.5 AND LAMBDA = 1
Info: FEP VDW ACTIVE FOR ANNIHILATED PARTICLES BETWEEN LAMBDA = 0 AND LAMBDA = 1
Info: FEP VDW ACTIVE FOR EXNIHILATED PARTICLES BETWEEN LAMBDA = 0 AND LAMBDA = 1
Info: FEP BOND ACTIVE FOR ANNIHILATED PARTICLES BETWEEN LAMBDA = 1 AND LAMBDA = 1
Info: FEP BOND ACTIVE FOR EXNIHILATED PARTICLES BETWEEN LAMBDA = 0 AND LAMBDA = 0
Info: LANGEVIN DYNAMICS ACTIVE
Info: LANGEVIN TEMPERATURE   300
Info: LANGEVIN USING BBK INTEGRATOR
Info: LANGEVIN DAMPING COEFFICIENT IS 1 INVERSE PS
Info: LANGEVIN DYNAMICS APPLIED TO HYDROGENS
Info: LANGEVIN PISTON PRESSURE CONTROL ACTIVE
Info:        TARGET PRESSURE IS 1.01325 BAR
Info:     OSCILLATION PERIOD IS 50 FS
Info:             DECAY TIME IS 25 FS
Info:     PISTON TEMPERATURE IS 300 K
Info:       PRESSURE CONTROL IS GROUP-BASED
Info:    INITIAL STRAIN RATE IS 0.000756073 0.000756073 0.000756073
Info:       CELL FLUCTUATION IS ISOTROPIC
Info: PARTICLE MESH EWALD (PME) ACTIVE
Info: PME TOLERANCE               1e-06
Info: PME EWALD COEFFICIENT       0.348832
Info: PME INTERPOLATION ORDER     4
Info: PME GRID DIMENSIONS         32 32 36
Info: PME MAXIMUM GRID SPACING    1
Info: PME CALCULATION WILL BE PERFORMED ON GPU
Info: FULL ELECTROSTATIC EVALUATION FREQUENCY      2
Info: USING VERLET I (r-RESPA) MTS SCHEME.
Info: C1 SPLITTING OF LONG RANGE ELECTROSTATICS
Info: PLACING ATOMS IN PATCHES BY HYDROGEN GROUPS
Info: RIGID BONDS TO HYDROGEN : ALL
Info:         ERROR TOLERANCE : 1e-08
Info:          MAX ITERATIONS : 100
Info: RIGID WATER USING SETTLE ALGORITHM
Info: RANDOM NUMBER SEED     1743984153
Info: USE HYDROGEN BONDS?    NO
Info: Using AMBER format force field!
Info: AMBER PARM FILE        mobley_2958326.prmtop
Info: COORDINATE PDB         mobley_2958326.pdb
Info: Exclusions will be read from PARM file!
Info: SCNB (VDW SCALING)     2
Info: USING ARITHMETIC MEAN TO COMBINE L-J SIGMA PARAMETERS
Info: BINARY COORDINATES     mobley_2958326_equil.coor
Info: SUMMARY OF PARAMETERS:
Info: 7 BONDS
Info: 9 ANGLES
Info:   9 HARMONIC
Info:   0 COSINE-BASED
Info: 5 DIHEDRAL
Info: 0 IMPROPER
Info: 0 CROSSTERM
Info: 0 VDW
Info: 28 VDW_PAIRS
Info: 0 NBTHOLE_PAIRS
Info: To read alchdata from file: mobley_2958326.pdb
Info: To read alchflag data from column: 5
Info: STRUCTURE SUMMARY:
Info: 2974 ATOMS
Info: 2973 BONDS
Info: 39 ANGLES
Info: 50 DIHEDRALS
Info: 0 IMPROPERS
Info: 0 CROSSTERMS
Info: 3060 EXCLUSIONS
Info: 2967 RIGID BONDS
Info: ALCH: 0 ATOMS TO DISAPPEAR IN FINAL STATE
Info: ALCH: 22 ATOMS TO APPEAR IN FINAL STATE
Info: 5955 DEGREES OF FREEDOM
Info: 991 HYDROGEN GROUPS
Info: 4 ATOMS IN LARGEST HYDROGEN GROUP
Info: 991 MIGRATION GROUPS
Info: 4 ATOMS IN LARGEST MIGRATION GROUP
Info: TOTAL MASS = 17828.9 amu
Info: TOTAL CHARGE = 7.45058e-09 e
Info: MASS DENSITY = 0.961669 g/cm^3
Info: ATOM DENSITY = 0.0966011 atoms/A^3
Info: ADDED 0 IMPLICIT EXCLUSIONS
Info: NONBONDED TABLE R-SQUARED SPACING: 0.0625
Info: NONBONDED TABLE SIZE: 705 POINTS
Info: REMOVING COM VELOCITY -0.00861405 -0.0541639 -0.0846375
Info: Use 3D box decompostion in PME FFT.
Info: Updated CUDA force table with 4096 elements.
Info: Updated CUDA LJ table with 7 x 7 elements.
Info: Found 25 unique exclusion lists needing 72 bytes
TCL: Running for 1500000 steps
ETITLE: TS BOND ANGLE DIHED IMPRP ELECT VDW BOUNDARY MISC KINETIC TOTAL TEMP POTENTIAL TOTALAVG TEMPAVG PRESSURE GPRESSURE VOLUME PRESSAVG GPRESSAVG
ENERGY: 0 2.1131 10.3315 1.2541 0.0000 -10795.7167 1405.2371 0.0000 0.0000 1705.4333 -7671.3476 288.2328 -9376.7809 -7671.3476 288.2328 -756.8523 -658.7474 30786.4020 -756.8523 -658.7474
ENERGY: 300000 1.6443 8.0007 2.6350 0.0000 -10761.8770 1426.5437 0.0000 0.0000 1730.4599 -7592.5933 292.4625 -9323.0532 -7588.1227 294.6497 -136.4794 -28.5563 30592.9821 -31.1383 47.1745
ENERGY: 600000 1.8380 11.2155 1.7213 0.0000 -10747.0386 1448.3650 0.0000 0.0000 1813.2201 -7470.6787 306.4497 -9283.8988 -7565.4774 296.9097 274.0304 366.7235 30383.0856 -15.4371 73.2261
ENERGY: 900000 2.7000 6.6384 0.8069 0.0000 -10882.4314 1528.4734 0.0000 0.0000 1816.7668 -7527.0458 307.0491 -9343.8126 -7550.3173 298.8161 643.9619 721.9483 30261.7586 3.7066 76.6930
ENERGY: 1200000 2.7568 11.5031 1.8575 0.0000 -10795.9541 1358.1906 0.0000 0.0000 1829.9364 -7591.7095 309.2749 -9421.6459 -7555.0238 299.6902 -994.3684 -953.3889 30759.3056 95.4670 166.9969
ENERGY: 1500000 6.0913 10.8791 2.6931 0.0000 -10771.7303 1409.4204 0.0000 0.0000 1780.3678 -7562.2785 300.8973 -9342.6464 -7546.7057 300.2390 -839.4723 -726.6594 30927.3453 36.5167 113.8866
TCL: Running FEP window   2: Lambda1 0.95   Lambda2 0.8999999999999999 [dLambda -0.050000000000000044]
TCL: Setting parameter firsttimestep to 0
TCL: Setting parameter alchLambda to 0.95
Info: NONBONDED TABLE R-SQUARED SPACING: 0.0625
Info: NONBONDED TABLE SIZE: 705 POINTS
TCL: Setting parameter alchLambda2 to 0.8999999999999999
Info: NONBONDED TABLE R-SQUARED SPACING: 0.0625
Info: NONBONDED TABLE SIZE: 705 POINTS
TCL: Running for 1500000 steps
ETITLE: TS BOND ANGLE DIHED IMPRP ELECT VDW BOUNDARY MISC KINETIC TOTAL TEMP POTENTIAL TOTALAVG TEMPAVG PRESSURE GPRESSURE VOLUME PRESSAVG GPRESSAVG
ENERGY: 0 6.0913 10.8791 2.6931 0.0000 -10770.4861 1409.1831 0.0000 0.0000 1779.4305 -7562.2089 300.7389 -9341.6394 -7562.2089 300.7389 -839.1232 -744.5138 30927.3453 -839.1232 -744.5138
ENERGY: 300000 1.0129 7.8224 4.9694 0.0000 -10781.5793 1490.7243 0.0000 0.0000 1820.1678 -7456.8824 307.6239 -9277.0502 -7493.7335 304.7964 165.2595 283.0947 31127.8805 -44.7441 39.9063
ENERGY: 600000 0.9563 10.5551 1.1787 0.0000 -10655.8476 1345.1900 0.0000 0.0000 1801.7436 -7496.2240 304.5100 -9297.9676 -7486.0196 303.8617 -649.6300 -633.3620 30650.3694 50.4497 133.7167
ENERGY: 900000 2.1938 13.2800 0.8560 0.0000 -10726.6739 1391.1716 0.0000 0.0000 1801.5635 -7517.6089 304.4796 -9319.1725 -7493.8667 303.6561 -279.8561 -241.8295 30119.1816 -87.0947 -8.6573
ENERGY: 1200000 1.4468 10.3071 1.9248 0.0000 -10776.0902 1422.7673 0.0000 0.0000 1813.6835 -7525.9606 306.5280 -9339.6441 -7501.8934 302.8570 -223.6653 -213.6080 30600.7166 -13.6630 61.9840
ENERGY: 1500000 1.0514 15.4897 3.4314 0.0000 -10662.1832 1452.1898 0.0000 0.0000 1760.9294 -7429.0914 297.6121 -9190.0208 -7497.3482 302.3205 104.9467 213.1910 30961.9255 8.5379 86.3158
TCL: Running FEP window   3: Lambda1 0.8999999999999999 Lambda2 0.8499999999999999 [dLambda -0.050000000000000044]
TCL: Setting parameter firsttimestep to 0
TCL: Setting parameter alchLambda to 0.8999999999999999
Info: NONBONDED TABLE R-SQUARED SPACING: 0.0625
Info: NONBONDED TABLE SIZE: 705 POINTS
TCL: Setting parameter alchLambda2 to 0.8499999999999999
Info: NONBONDED TABLE R-SQUARED SPACING: 0.0625
Info: NONBONDED TABLE SIZE: 705 POINTS
TCL: Running for 1500000 steps
ETITLE: TS BOND ANGLE DIHED IMPRP ELECT VDW BOUNDARY MISC KINETIC TOTAL TEMP POTENTIAL TOTALAVG TEMPAVG PRESSURE GPRESSURE VOLUME PRESSAVG GPRESSAVG
ENERGY: 0 1.0514 15.4898 3.4314 0.0000 -10661.0876 1452.0204 0.0000 0.0000 1760.0722 -7429.0224 297.4672 -9189.0946 -7429.0224 297.4672 114.0388 198.5523 30961.9255 114.0388 198.5523
ENERGY: 300000 2.1325 9.6101 1.8474 0.0000 -10719.2874 1448.0169 0.0000 0.0000 1786.8336 -7470.8469 301.9901 -9257.6806 -7485.6280 299.2656 -58.4651 -24.6065 30934.2260 -117.3061 -56.2075
ENERGY: 600000 1.7561 7.7095 1.2891 0.0000 -10806.0400 1463.4887 0.0000 0.0000 1761.5742 -7570.2224 297.7211 -9331.7966 -7512.5488 299.0056 -18.4363 48.9576 30677.5662 -0.8396 62.9933
ENERGY: 900000 1.1737 8.2992 3.1311 0.0000 -10792.9308 1476.1898 0.0000 0.0000 1813.3214 -7490.8155 306.4668 -9304.1369 -7512.5125 299.0042 325.7969 326.3592 30763.6196 14.0258 76.2951
ENERGY: 1200000 3.7545 15.9236 2.7251 0.0000 -10796.1806 1460.0105 0.0000 0.0000 1785.0337 -7528.7333 301.6859 -9313.7669 -7519.8687 299.2000 -30.8190 3.4670 30929.9198 12.8262 70.5152
ENERGY: 1500000 3.5342 12.0803 2.1028 0.0000 -10581.7387 1272.0822 0.0000 0.0000 1736.9898 -7554.9493 293.5661 -9291.9391 -7522.4342 298.9236 -1660.8836 -1586.4994 31344.3158 -98.7168 -31.4305
TCL: Running FEP window   4: Lambda1 0.8499999999999999 Lambda2 0.7999999999999998 [dLambda -0.050000000000000044]
TCL: Setting parameter firsttimestep to 0
TCL: Setting parameter alchLambda to 0.8499999999999999
Info: NONBONDED TABLE R-SQUARED SPACING: 0.0625
Info: NONBONDED TABLE SIZE: 705 POINTS
TCL: Setting parameter alchLambda2 to 0.7999999999999998
Info: NONBONDED TABLE R-SQUARED SPACING: 0.0625
Info: NONBONDED TABLE SIZE: 705 POINTS
TCL: Running for 1500000 steps
ETITLE: TS BOND ANGLE DIHED IMPRP ELECT VDW BOUNDARY MISC KINETIC TOTAL TEMP POTENTIAL TOTALAVG TEMPAVG PRESSURE GPRESSURE VOLUME PRESSAVG GPRESSAVG
ENERGY: 0 3.5342 12.0803 2.1028 0.0000 -10580.7071 1271.8233 0.0000 0.0000 1736.1222 -7555.0442 293.4195 -9291.1664 -7555.0442 293.4195 -1671.0738 -1601.7149 31344.3158 -1671.0738 -1601.7149
ENERGY: 300000 1.9422 9.1272 1.5170 0.0000 -10958.6210 1578.6555 0.0000 0.0000 1810.8664 -7556.5128 306.0519 -9367.3792 -7596.1488 295.6980 1127.5231 1174.8150 30339.8530 -407.7296 -342.9572
ENERGY: 600000 2.4978 9.7328 2.0947 0.0000 -10667.3131 1437.7147 0.0000 0.0000 1775.7083 -7439.5648 300.1098 -9215.2731 -7563.8174 295.7301 37.7437 84.3088 30873.4254 -100.0598 -41.4011
ENERGY: 900000 1.2096 9.3476 2.3343 0.0000 -10728.8613 1413.9586 0.0000 0.0000 1791.6560 -7510.3551 302.8051 -9302.0112 -7549.7041 298.6654 -178.8369 -99.9633 30409.6628 -234.8035 -169.3910
ENERGY: 1200000 1.1681 9.5445 1.9569 0.0000 -10736.0669 1406.6133 0.0000 0.0000 1745.3833 -7571.4007 294.9847 -9316.7840 -7549.5180 298.2060 -332.0801 -248.7539 30357.6304 -227.7531 -155.5596
ENERGY: 1500000 1.6266 18.5528 1.1829 0.0000 -10583.8960 1431.6843 0.0000 0.0000 1759.0014 -7371.8480 297.2862 -9130.8494 -7536.3398 297.9753 107.5137 163.8834 31116.5595 -221.7614 -145.6195
TCL: Running FEP window   5: Lambda1 0.7999999999999998 Lambda2 0.7499999999999998 [dLambda -0.050000000000000044]
TCL: Setting parameter firsttimestep to 0
TCL: Setting parameter alchLambda to 0.7999999999999998
Info: NONBONDED TABLE R-SQUARED SPACING: 0.0625
Info: NONBONDED TABLE SIZE: 705 POINTS
TCL: Setting parameter alchLambda2 to 0.7499999999999998
Info: NONBONDED TABLE R-SQUARED SPACING: 0.0625
Info: NONBONDED TABLE SIZE: 705 POINTS
TCL: Running for 1500000 steps
ETITLE: TS BOND ANGLE DIHED IMPRP ELECT VDW BOUNDARY MISC KINETIC TOTAL TEMP POTENTIAL TOTALAVG TEMPAVG PRESSURE GPRESSURE VOLUME PRESSAVG GPRESSAVG
ENERGY: 0 1.6266 18.5528 1.1829 0.0000 -10583.2821 1432.4649 0.0000 0.0000 1758.1251 -7371.3298 297.1381 -9129.4549 -7371.3298 297.1381 93.8921 165.4575 31116.5595 93.8921 165.4575
ENERGY: 300000 3.7866 9.9628 1.1152 0.0000 -10912.4283 1500.5595 0.0000 0.0000 1772.2724 -7624.7318 299.5291 -9397.0042 -7523.4300 297.4025 18.8224 108.8750 30453.1371 17.8606 80.1858
ENERGY: 600000 2.4839 11.5217 0.9790 0.0000 -10705.1419 1410.9783 0.0000 0.0000 1787.1402 -7492.0387 302.0419 -9279.1789 -7518.7864 298.8399 -35.6956 41.8291 30214.1569 -252.9745 -197.8863
ENERGY: 900000 4.0965 10.7590 4.5335 0.0000 -10840.3972 1483.7462 0.0000 0.0000 1792.6476 -7544.6143 302.9727 -9337.2620 -7531.4375 298.9265 169.0917 260.7904 30309.2515 -225.0595 -161.1720
ENERGY: 1200000 3.4114 7.4556 1.5926 0.0000 -10814.4097 1475.9498 0.0000 0.0000 1794.2696 -7531.7307 303.2469 -9326.0002 -7536.6126 299.8823 535.5005 598.9758 30059.2805 -177.3107 -117.8140
ENERGY: 1500000 0.8149 8.1342 2.7201 0.0000 -10682.4457 1418.4873 0.0000 0.0000 1762.5240 -7489.7651 297.8816 -9252.2892 -7533.3806 299.8480 -218.9541 -167.4246 30974.2979 -112.4995 -53.4852
TCL: Running FEP window   6: Lambda1 0.7499999999999998 Lambda2 0.6999999999999997 [dLambda -0.050000000000000044]
TCL: Setting parameter firsttimestep to 0
TCL: Setting parameter alchLambda to 0.7499999999999998
Info: NONBONDED TABLE R-SQUARED SPACING: 0.0625
Info: NONBONDED TABLE SIZE: 705 POINTS
TCL: Setting parameter alchLambda2 to 0.6999999999999997
Info: NONBONDED TABLE R-SQUARED SPACING: 0.0625
Info: NONBONDED TABLE SIZE: 705 POINTS
TCL: Running for 1500000 steps
ETITLE: TS BOND ANGLE DIHED IMPRP ELECT VDW BOUNDARY MISC KINETIC TOTAL TEMP POTENTIAL TOTALAVG TEMPAVG PRESSURE GPRESSURE VOLUME PRESSAVG GPRESSAVG
ENERGY: 0 0.8150 8.1342 2.7201 0.0000 -10681.6110 1418.9198 0.0000 0.0000 1761.6369 -7489.3850 297.7317 -9251.0220 -7489.3850 297.7317 -251.1286 -170.4368 30974.2979 -251.1286 -170.4368
ENERGY: 300000 1.3675 12.3913 2.4449 0.0000 -10748.8806 1415.9712 0.0000 0.0000 1816.8120 -7499.8936 307.0567 -9316.7056 -7517.6384 300.3506 -231.7081 -113.5308 30322.2215 -224.6868 -163.4707
ENERGY: 600000 0.7116 12.4583 1.8022 0.0000 -10695.1769 1410.3443 0.0000 0.0000 1785.3179 -7484.5426 301.7340 -9269.8605 -7514.6815 300.2695 -193.2211 -133.9351 30869.1116 -117.8190 -53.8903
ENERGY: 900000 0.9726 10.7905 2.2212 0.0000 -10696.2596 1421.0016 0.0000 0.0000 1761.1070 -7500.1665 297.6421 -9261.2736 -7515.2671 300.2788 -47.1480 -43.4340 30626.3344 28.1602 91.4064
ENERGY: 1200000 1.2392 8.9911 4.0726 0.0000 -10834.4918 1440.6441 0.0000 0.0000 1723.0380 -7656.5067 291.2081 -9379.5447 -7525.8600 299.2375 -149.1940 -128.2238 30462.6810 64.9873 128.3867
ENERGY: 1500000 2.7754 7.7168 2.3397 0.0000 -10690.8756 1439.6812 0.0000 0.0000 1770.2979 -7468.0646 299.1954 -9238.3625 -7518.3758 299.2191 -241.8376 -218.7225 31269.2369 38.7818 103.5168
TCL: Running FEP window   7: Lambda1 0.6999999999999997 Lambda2 0.6499999999999997 [dLambda -0.050000000000000044]
TCL: Setting parameter firsttimestep to 0
TCL: Setting parameter alchLambda to 0.6999999999999997
Info: NONBONDED TABLE R-SQUARED SPACING: 0.0625
Info: NONBONDED TABLE SIZE: 705 POINTS
TCL: Setting parameter alchLambda2 to 0.6499999999999997
Info: NONBONDED TABLE R-SQUARED SPACING: 0.0625
Info: NONBONDED TABLE SIZE: 705 POINTS
TCL: Running for 1500000 steps
ETITLE: TS BOND ANGLE DIHED IMPRP ELECT VDW BOUNDARY MISC KINETIC TOTAL TEMP POTENTIAL TOTALAVG TEMPAVG PRESSURE GPRESSURE VOLUME PRESSAVG GPRESSAVG
ENERGY: 0 2.7754 7.7168 2.3397 0.0000 -10690.8799 1440.3071 0.0000 0.0000 1769.3886 -7468.3524 299.0418 -9237.7410 -7468.3524 299.0418 -306.8469 -220.7013 31269.2369 -306.8469 -220.7013
ENERGY: 300000 0.6657 9.3691 1.6941 0.0000 -10850.9434 1484.4972 0.0000 0.0000 1790.8295 -7563.8879 302.6655 -9354.7174 -7506.7470 303.3260 269.8760 281.6997 30335.1585 -400.4687 -335.6816
ENERGY: 600000 2.6081 11.3351 2.5459 0.0000 -10741.2646 1417.2518 0.0000 0.0000 1738.3853 -7569.1385 293.8019 -9307.5238 -7522.9813 300.4131 -31.3772 78.5215 30250.3961 -344.7439 -271.3668
ENERGY: 900000 0.4747 11.2558 3.9509 0.0000 -10703.7406 1376.4566 0.0000 0.0000 1744.5955 -7567.0073 294.8515 -9311.6027 -7532.8194 298.4954 -639.1908 -564.3859 30660.1214 -257.8693 -189.9145
ENERGY: 1200000 2.8116 6.8659 1.9951 0.0000 -10787.8513 1414.6017 0.0000 0.0000 1781.5025 -7580.0743 301.0891 -9361.5768 -7533.0960 299.4146 -461.1097 -383.8346 30674.1737 -300.3434 -237.0174
ENERGY: 1500000 1.5022 11.1896 0.8375 0.0000 -10775.6970 1459.1819 0.0000 0.0000 1812.1135 -7490.8723 306.2626 -9302.9857 -7535.0339 300.0254 161.2234 248.8543 30413.3885 -290.1201 -228.8129
TCL: Running FEP window   8: Lambda1 0.6499999999999997 Lambda2 0.5999999999999996 [dLambda -0.050000000000000044]
TCL: Setting parameter firsttimestep to 0
TCL: Setting parameter alchLambda to 0.6499999999999997
Info: NONBONDED TABLE R-SQUARED SPACING: 0.0625
Info: NONBONDED TABLE SIZE: 705 POINTS
TCL: Setting parameter alchLambda2 to 0.5999999999999996
Info: NONBONDED TABLE R-SQUARED SPACING: 0.0625
Info: NONBONDED TABLE SIZE: 705 POINTS
TCL: Running for 1500000 steps
ETITLE: TS BOND ANGLE DIHED IMPRP ELECT VDW BOUNDARY MISC KINETIC TOTAL TEMP POTENTIAL TOTALAVG TEMPAVG PRESSURE GPRESSURE VOLUME PRESSAVG GPRESSAVG
ENERGY: 0 1.5022 11.1896 0.8375 0.0000 -10774.7274 1459.7420 0.0000 0.0000 1811.2206 -7490.2355 306.1117 -9301.4561 -7490.2355 306.1117 165.6928 247.6341 30413.3885 165.6928 247.6341
ENERGY: 300000 0.6537 8.2231 1.1604 0.0000 -10743.3523 1508.3018 0.0000 0.0000 1760.5937 -7464.4196 297.5554 -9225.0133 -7478.6448 299.7739 700.4793 752.1189 30529.3939 261.2677 326.7909
ENERGY: 600000 2.3706 8.3564 1.5052 0.0000 -10709.8059 1421.0152 0.0000 0.0000 1791.1266 -7485.4320 302.7157 -9276.5585 -7478.2939 300.7474 -290.3236 -204.3975 30783.9261 -8.5909 57.7810
ENERGY: 900000 1.2546 8.6143 4.4062 0.0000 -10822.1286 1444.7968 0.0000 0.0000 1813.7083 -7549.3484 306.5322 -9363.0567 -7500.0900 299.8738 -269.2303 -179.5649 30361.6960 -82.4240 -18.5942
ENERGY: 1200000 0.2652 13.2492 3.0311 0.0000 -10691.9382 1390.5375 0.0000 0.0000 1718.6443 -7566.2109 290.4655 -9284.8552 -7501.9388 299.3253 -412.8955 -377.6043 30716.8584 -87.9051 -27.9692
ENERGY: 1500000 2.7157 9.2760 4.4727 0.0000 -10769.2516 1459.7920 0.0000 0.0000 1875.9913 -7417.0039 317.0585 -9292.9952 -7494.6311 301.1252 93.7193 80.9386 30792.2974 -23.5110 35.0137
TCL: Running FEP window   9: Lambda1 0.5999999999999996 Lambda2 0.5499999999999996 [dLambda -0.050000000000000044]
TCL: Setting parameter firsttimestep to 0
TCL: Setting parameter alchLambda to 0.5999999999999996
Info: NONBONDED TABLE R-SQUARED SPACING: 0.0625
Info: NONBONDED TABLE SIZE: 705 POINTS
TCL: Setting parameter alchLambda2 to 0.5499999999999996
Info: NONBONDED TABLE R-SQUARED SPACING: 0.0625
Info: NONBONDED TABLE SIZE: 705 POINTS
TCL: Running for 1500000 steps
ETITLE: TS BOND ANGLE DIHED IMPRP ELECT VDW BOUNDARY MISC KINETIC TOTAL TEMP POTENTIAL TOTALAVG TEMPAVG PRESSURE GPRESSURE VOLUME PRESSAVG GPRESSAVG
ENERGY: 0 2.7157 9.2760 4.4727 0.0000 -10769.0744 1460.3128 0.0000 0.0000 1875.1070 -7417.1903 316.9091 -9292.2972 -7417.1903 316.9091 -1.4897 75.4409 30792.2974 -1.4897 75.4409
ENERGY: 300000 3.0637 11.0125 1.0733 0.0000 -10767.2759 1443.8261 0.0000 0.0000 1786.4463 -7521.8540 301.9247 -9308.3003 -7516.0354 303.9779 46.8387 76.1543 30511.8665 27.6357 88.6179
ENERGY: 600000 1.0727 11.8993 1.6862 0.0000 -10744.2120 1489.6154 0.0000 0.0000 1762.4526 -7477.4858 297.8695 -9239.9384 -7513.9684 301.8622 273.7321 337.7317 30947.8296 80.1144 148.7589
ENERGY: 900000 2.1903 9.6533 2.3590 0.0000 -10607.2062 1268.7611 0.0000 0.0000 1733.1385 -7591.1041 292.9152 -9324.2426 -7518.5844 301.0035 -1766.3314 -1719.7100 31306.8340 -185.9721 -118.0402
ENERGY: 1200000 2.0913 11.7405 1.3685 0.0000 -10768.6359 1502.8259 0.0000 0.0000 1752.2961 -7498.3137 296.1530 -9250.6098 -7505.4449 301.1568 328.6099 377.1704 30981.8367 -108.2071 -44.2098
ENERGY: 1500000 3.1151 10.6923 2.1679 0.0000 -10641.7949 1424.1350 0.0000 0.0000 1778.2660 -7423.4186 300.5421 -9201.6846 -7500.3538 300.9859 168.9483 185.9297 30521.7457 -160.0369 -91.2964
TCL: Running FEP window  10: Lambda1 0.5499999999999996 Lambda2 0.4999999999999996 [dLambda -0.04999999999999999]
TCL: Setting parameter firsttimestep to 0
TCL: Setting parameter alchLambda to 0.5499999999999996
Info: NONBONDED TABLE R-SQUARED SPACING: 0.0625
Info: NONBONDED TABLE SIZE: 705 POINTS
TCL: Setting parameter alchLambda2 to 0.4999999999999996
Info: NONBONDED TABLE R-SQUARED SPACING: 0.0625
Info: NONBONDED TABLE SIZE: 705 POINTS
TCL: Running for 1500000 steps
ETITLE: TS BOND ANGLE DIHED IMPRP ELECT VDW BOUNDARY MISC KINETIC TOTAL TEMP POTENTIAL TOTALAVG TEMPAVG PRESSURE GPRESSURE VOLUME PRESSAVG GPRESSAVG
ENERGY: 0 3.1151 10.6923 2.1679 0.0000 -10641.5486 1424.3807 0.0000 0.0000 1777.3697 -7423.8229 300.3906 -9201.1926 -7423.8229 300.3906 108.9886 179.6344 30521.7457 108.9886 179.6344
ENERGY: 300000 0.5529 10.3394 2.6211 0.0000 -10469.0394 1301.4611 0.0000 0.0000 1786.8165 -7367.2484 301.9872 -9154.0649 -7419.2328 303.5053 -811.5904 -757.3146 31197.8334 -35.4310 28.6809
ENERGY: 600000 2.6282 11.0928 1.4396 0.0000 -10685.9646 1480.6461 0.0000 0.0000 1782.9081 -7407.2498 301.3267 -9190.1579 -7451.1158 301.4069 175.5126 266.0908 31113.8428 -119.0888 -38.9920
ENERGY: 900000 1.0223 13.4519 2.7503 0.0000 -10889.8902 1523.4027 0.0000 0.0000 1791.5395 -7557.7236 302.7854 -9349.2630 -7460.3915 302.4422 506.9995 585.8129 30236.1937 -127.1449 -47.9902
ENERGY: 1200000 2.4086 8.3593 2.6818 0.0000 -10856.4638 1506.7096 0.0000 0.0000 1791.9441 -7544.3603 302.8538 -9336.3044 -7472.9785 302.1503 262.4563 344.5141 30571.6877 -95.7108 -21.9741
ENERGY: 1500000 2.2467 11.7830 2.4055 0.0000 -10758.9694 1461.4947 0.0000 0.0000 1801.1183 -7479.9212 304.4044 -9281.0395 -7481.4607 302.4554 267.0173 279.5036 30503.3478 -116.8065 -50.6790
TCL: Running FEP window  11: Lambda1 0.4999999999999996 Lambda2 0.4499999999999996 [dLambda -0.04999999999999999]
TCL: Setting parameter firsttimestep to 0
TCL: Setting parameter alchLambda to 0.4999999999999996
Info: NONBONDED TABLE R-SQUARED SPACING: 0.0625
Info: NONBONDED TABLE SIZE: 705 POINTS
TCL: Setting parameter alchLambda2 to 0.4499999999999996
Info: NONBONDED TABLE R-SQUARED SPACING: 0.0625
Info: NONBONDED TABLE SIZE: 705 POINTS
TCL: Running for 1500000 steps
ETITLE: TS BOND ANGLE DIHED IMPRP ELECT VDW BOUNDARY MISC KINETIC TOTAL TEMP POTENTIAL TOTALAVG TEMPAVG PRESSURE GPRESSURE VOLUME PRESSAVG GPRESSAVG
ENERGY: 0 2.2467 11.7830 2.4055 0.0000 -10758.9605 1462.0004 0.0000 0.0000 1800.2488 -7480.2760 304.2574 -9280.5249 -7480.2760 304.2574 189.6009 275.1701 30503.3478 189.6009 275.1701
ENERGY: 300000 0.9657 14.8550 1.4437 0.0000 -10644.6027 1393.7084 0.0000 0.0000 1773.0783 -7460.5516 299.6654 -9233.6299 -7486.3778 301.0732 -360.4607 -319.7193 30944.8469 118.5242 174.0621
ENERGY: 600000 0.7715 8.7351 3.3646 0.0000 -10626.2785 1367.0577 0.0000 0.0000 1819.6027 -7426.7469 307.5284 -9246.3496 -7493.3933 302.1756 -320.7794 -329.4803 30452.4449 17.7902 69.6066
ENERGY: 900000 2.9434 5.5801 5.2033 0.0000 -10679.6715 1423.2713 0.0000 0.0000 1775.6783 -7466.9951 300.1048 -9242.6734 -7502.2997 300.6884 -224.0789 -172.8286 31054.3630 -49.4031 -4.9539
ENERGY: 1200000 1.1489 7.9340 3.3425 0.0000 -10909.5600 1510.6328 0.0000 0.0000 1788.4110 -7598.0909 302.2567 -9386.5018 -7496.8334 301.7801 284.7669 401.0265 30344.1993 -42.7991 14.9718
ENERGY: 1500000 3.1925 8.1473 1.8019 0.0000 -10736.3800 1375.2890 0.0000 0.0000 1804.4091 -7543.5402 304.9605 -9347.9493 -7504.9791 301.7160 -601.4313 -564.9132 30294.6693 -113.6390 -53.7823
TCL: Running FEP window  12: Lambda1 0.4499999999999996 Lambda2 0.39999999999999963 [dLambda -0.04999999999999999]
TCL: Setting parameter firsttimestep to 0
TCL: Setting parameter alchLambda to 0.4499999999999996
Info: NONBONDED TABLE R-SQUARED SPACING: 0.0625
Info: NONBONDED TABLE SIZE: 705 POINTS
TCL: Setting parameter alchLambda2 to 0.39999999999999963
Info: NONBONDED TABLE R-SQUARED SPACING: 0.0625
Info: NONBONDED TABLE SIZE: 705 POINTS
TCL: Running for 1500000 steps
ETITLE: TS BOND ANGLE DIHED IMPRP ELECT VDW BOUNDARY MISC KINETIC TOTAL TEMP POTENTIAL TOTALAVG TEMPAVG PRESSURE GPRESSURE VOLUME PRESSAVG GPRESSAVG
ENERGY: 0 3.1925 8.1473 1.8019 0.0000 -10736.3796 1374.9515 0.0000 0.0000 1803.5460 -7544.7403 304.8147 -9348.2864 -7544.7403 304.8147 -652.8475 -574.8537 30294.6693 -652.8475 -574.8537
ENERGY: 300000 1.9888 8.9403 2.0118 0.0000 -10647.2933 1361.2735 0.0000 0.0000 1715.4662 -7557.6128 289.9284 -9273.0790 -7503.1252 298.2085 -756.3812 -717.1943 30602.3855 -230.4680 -163.0217
ENERGY: 600000 1.0015 7.7079 1.2046 0.0000 -10733.4697 1339.3557 0.0000 0.0000 1775.0316 -7609.1683 299.9955 -9384.2000 -7509.4763 300.0844 -1088.8638 -972.4887 30185.2093 -325.1501 -270.6289
ENERGY: 900000 0.8326 6.9693 3.4827 0.0000 -10717.2838 1450.0925 0.0000 0.0000 1724.3320 -7531.5749 291.4268 -9255.9069 -7502.4661 298.5508 -112.1655 -9.2612 30691.4909 -289.2596 -223.3450
ENERGY: 1200000 0.5141 11.2316 2.3848 0.0000 -10639.0014 1387.2959 0.0000 0.0000 1788.8638 -7448.7112 302.3332 -9237.5751 -7497.1089 298.4394 -357.5623 -276.3047 30749.8392 -354.1230 -285.9541
ENERGY: 1500000 2.3119 11.1574 1.1944 0.0000 -10746.7415 1421.5718 0.0000 0.0000 1751.4602 -7559.0458 296.0117 -9310.5060 -7494.7057 298.8554 -461.2423 -376.9618 30533.3002 -304.9081 -238.4287
TCL: Running FEP window  13: Lambda1 0.39999999999999963 Lambda2 0.34999999999999964 [dLambda -0.04999999999999999]
TCL: Setting parameter firsttimestep to 0
TCL: Setting parameter alchLambda to 0.39999999999999963
Info: NONBONDED TABLE R-SQUARED SPACING: 0.0625
Info: NONBONDED TABLE SIZE: 705 POINTS
TCL: Setting parameter alchLambda2 to 0.34999999999999964
Info: NONBONDED TABLE R-SQUARED SPACING: 0.0625
Info: NONBONDED TABLE SIZE: 705 POINTS
TCL: Running for 1500000 steps
ETITLE: TS BOND ANGLE DIHED IMPRP ELECT VDW BOUNDARY MISC KINETIC TOTAL TEMP POTENTIAL TOTALAVG TEMPAVG PRESSURE GPRESSURE VOLUME PRESSAVG GPRESSAVG
ENERGY: 0 2.3119 11.1574 1.1944 0.0000 -10746.7410 1421.3960 0.0000 0.0000 1750.5720 -7560.1093 295.8616 -9310.6813 -7560.1093 295.8616 -475.9197 -386.7343 30533.3002 -475.9197 -386.7343
ENERGY: 300000 4.0155 12.7051 5.8011 0.0000 -10538.0042 1365.2874 0.0000 0.0000 1789.4122 -7360.7829 302.4259 -9150.1951 -7517.3810 297.1612 -546.0242 -506.1837 31068.5033 -137.6242 -100.5931
ENERGY: 600000 1.0315 10.3672 0.9250 0.0000 -10712.0689 1440.8452 0.0000 0.0000 1751.7760 -7507.1240 296.0651 -9258.9000 -7517.0497 296.5682 351.6200 422.6097 30218.5759 -67.0743 -16.6320
ENERGY: 900000 1.5081 10.7925 2.3709 0.0000 -10559.9259 1331.7431 0.0000 0.0000 1780.6082 -7432.9031 300.9380 -9213.5113 -7516.8581 297.4930 -544.9862 -529.7254 30546.8859 -164.7215 -116.9166
ENERGY: 1200000 2.5164 9.4044 1.2977 0.0000 -10773.1037 1490.6226 0.0000 0.0000 1763.7604 -7505.5021 298.0906 -9269.2626 -7515.5021 297.5434 492.5567 535.9795 30433.7738 -177.1923 -127.9350
ENERGY: 1500000 2.5630 11.5898 3.9902 0.0000 -10806.8253 1503.0082 0.0000 0.0000 1799.5629 -7486.1112 304.1415 -9285.6741 -7508.6328 298.4433 173.2650 244.6633 30834.7498 -67.4436 -15.3829
TCL: Running FEP window  14: Lambda1 0.34999999999999964 Lambda2 0.29999999999999966 [dLambda -0.04999999999999999]
TCL: Setting parameter firsttimestep to 0
TCL: Setting parameter alchLambda to 0.34999999999999964
Info: NONBONDED TABLE R-SQUARED SPACING: 0.0625
Info: NONBONDED TABLE SIZE: 705 POINTS
TCL: Setting parameter alchLambda2 to 0.29999999999999966
Info: NONBONDED TABLE R-SQUARED SPACING: 0.0625
Info: NONBONDED TABLE SIZE: 705 POINTS
TCL: Running for 1500000 steps
ETITLE: TS BOND ANGLE DIHED IMPRP ELECT VDW BOUNDARY MISC KINETIC TOTAL TEMP POTENTIAL TOTALAVG TEMPAVG PRESSURE GPRESSURE VOLUME PRESSAVG GPRESSAVG
ENERGY: 0 2.5630 11.5898 3.9902 0.0000 -10806.8255 1503.0691 0.0000 0.0000 1798.6740 -7486.9394 303.9912 -9285.6134 -7486.9394 303.9912 121.9720 236.7919 30834.7498 121.9720 236.7919
ENERGY: 300000 2.1950 10.4884 0.5427 0.0000 -10621.0279 1416.1493 0.0000 0.0000 1697.0703 -7494.5822 286.8194 -9191.6525 -7459.5424 299.8236 -40.8976 -51.3386 30601.9507 -363.6702 -301.2411
ENERGY: 600000 4.6730 11.4851 2.5774 0.0000 -10514.8537 1312.3993 0.0000 0.0000 1784.3964 -7399.3224 301.5782 -9183.7188 -7475.4183 298.5222 -898.9430 -823.1181 30796.5771 -402.1961 -333.6065
ENERGY: 900000 0.8512 12.6279 2.6555 0.0000 -10815.3658 1450.4554 0.0000 0.0000 1700.8870 -7647.8888 287.4644 -9348.7759 -7489.0775 297.0321 141.1525 186.7855 29716.3627 -279.4814 -212.7495
ENERGY: 1200000 2.5069 9.7365 1.8654 0.0000 -10843.9462 1493.4933 0.0000 0.0000 1825.4919 -7510.8522 308.5237 -9336.3441 -7487.7414 298.6641 -51.9842 19.0036 31108.0410 -214.6496 -148.8633
ENERGY: 1500000 0.9198 10.5900 3.3115 0.0000 -10797.0811 1477.5651 0.0000 0.0000 1728.7019 -7575.9928 292.1654 -9304.6946 -7493.7477 298.6199 205.3126 318.4411 29988.8340 -126.6665 -57.2136
TCL: Running FEP window  15: Lambda1 0.29999999999999966 Lambda2 0.24999999999999967 [dLambda -0.04999999999999999]
TCL: Setting parameter firsttimestep to 0
TCL: Setting parameter alchLambda to 0.29999999999999966
Info: NONBONDED TABLE R-SQUARED SPACING: 0.0625
Info: NONBONDED TABLE SIZE: 705 POINTS
TCL: Setting parameter alchLambda2 to 0.24999999999999967
Info: NONBONDED TABLE R-SQUARED SPACING: 0.0625
Info: NONBONDED TABLE SIZE: 705 POINTS
TCL: Running for 1500000 steps
ETITLE: TS BOND ANGLE DIHED IMPRP ELECT VDW BOUNDARY MISC KINETIC TOTAL TEMP POTENTIAL TOTALAVG TEMPAVG PRESSURE GPRESSURE VOLUME PRESSAVG GPRESSAVG
ENERGY: 0 0.9198 10.5900 3.3115 0.0000 -10797.0809 1477.7008 0.0000 0.0000 1727.7996 -7576.7591 292.0129 -9304.5588 -7576.7591 292.0129 220.9614 314.3072 29988.8340 220.9614 314.3072
ENERGY: 300000 1.9932 10.7281 0.9421 0.0000 -10845.3530 1528.3245 0.0000 0.0000 1807.2891 -7496.0759 305.4473 -9303.3651 -7523.4818 299.4447 511.2796 567.6628 30598.7174 419.5408 484.8255
ENERGY: 600000 3.9009 11.8937 1.6888 0.0000 -10705.4779 1391.7297 0.0000 0.0000 1776.2950 -7519.9699 300.2090 -9296.2648 -7501.8420 301.4682 -639.0964 -551.8368 30763.6941 162.8339 238.1308
ENERGY: 900000 3.9148 7.9997 0.5400 0.0000 -10791.8153 1493.9873 0.0000 0.0000 1750.1846 -7535.1890 295.7961 -9285.3736 -7501.5587 300.8537 -40.7511 -3.6440 31125.5264 55.4930 121.3728
ENERGY: 1200000 2.4344 4.5977 0.5355 0.0000 -10613.9822 1358.7835 0.0000 0.0000 1775.6288 -7472.0023 300.0964 -9247.6311 -7503.4230 301.1645 -831.5453 -759.5509 31103.4774 -44.9929 27.2193
ENERGY: 1500000 2.3993 9.6856 3.1079 0.0000 -10740.5653 1436.8394 0.0000 0.0000 1825.0987 -7463.4345 308.4572 -9288.5332 -7503.7803 302.2946 -104.1359 -49.5115 30363.1046 20.1852 88.4775
TCL: Running FEP window  16: Lambda1 0.24999999999999967 Lambda2 0.19999999999999968 [dLambda -0.04999999999999999]
TCL: Setting parameter firsttimestep to 0
TCL: Setting parameter alchLambda to 0.24999999999999967
Info: NONBONDED TABLE R-SQUARED SPACING: 0.0625
Info: NONBONDED TABLE SIZE: 705 POINTS
TCL: Setting parameter alchLambda2 to 0.19999999999999968
Info: NONBONDED TABLE R-SQUARED SPACING: 0.0625
Info: NONBONDED TABLE SIZE: 705 POINTS
TCL: Running for 1500000 steps
ETITLE: TS BOND ANGLE DIHED IMPRP ELECT VDW BOUNDARY MISC KINETIC TOTAL TEMP POTENTIAL TOTALAVG TEMPAVG PRESSURE GPRESSURE VOLUME PRESSAVG GPRESSAVG
ENERGY: 0 2.3993 9.6856 3.1079 0.0000 -10740.5655 1437.2452 0.0000 0.0000 1824.1975 -7463.9300 308.3049 -9288.1275 -7463.9300 308.3049 -137.6154 -54.6541 30363.1046 -137.6154 -54.6541
ENERGY: 300000 2.2729 8.2256 0.8403 0.0000 -10690.3283 1436.4228 0.0000 0.0000 1732.3759 -7510.1908 292.7863 -9242.5666 -7515.2605 297.1516 -385.3371 -352.4475 31303.4854 -419.0313 -352.4735
ENERGY: 600000 1.1437 12.1441 1.3586 0.0000 -10841.6520 1453.8621 0.0000 0.0000 1746.6609 -7626.4826 295.2006 -9373.1435 -7526.5122 297.9460 -172.7100 -68.9042 30152.9545 -359.7656 -288.8396
ENERGY: 900000 1.8859 10.5353 2.1573 0.0000 -10822.4112 1535.2202 0.0000 0.0000 1757.5537 -7515.0589 297.0416 -9272.6126 -7510.3365 298.7490 604.6634 637.7749 30457.5417 -187.6700 -116.9159
ENERGY: 1200000 3.9154 11.0237 1.0281 0.0000 -10817.8856 1478.4952 0.0000 0.0000 1787.1018 -7536.3215 302.0354 -9323.4233 -7509.8727 299.9490 179.2839 271.8235 30064.5336 -201.9102 -133.4740
ENERGY: 1500000 0.5388 10.6124 3.3571 0.0000 -10836.1287 1472.4759 0.0000 0.0000 1735.2021 -7613.9425 293.2639 -9349.1446 -7516.2211 299.4646 -90.4967 8.3313 30403.0296 -184.3846 -115.2734
TCL: Running FEP window  17: Lambda1 0.19999999999999968 Lambda2 0.1499999999999997 [dLambda -0.04999999999999999]
TCL: Setting parameter firsttimestep to 0
TCL: Setting parameter alchLambda to 0.19999999999999968
Info: NONBONDED TABLE R-SQUARED SPACING: 0.0625
Info: NONBONDED TABLE SIZE: 705 POINTS
TCL: Setting parameter alchLambda2 to 0.1499999999999997
Info: NONBONDED TABLE R-SQUARED SPACING: 0.0625
Info: NONBONDED TABLE SIZE: 705 POINTS
TCL: Running for 1500000 steps
ETITLE: TS BOND ANGLE DIHED IMPRP ELECT VDW BOUNDARY MISC KINETIC TOTAL TEMP POTENTIAL TOTALAVG TEMPAVG PRESSURE GPRESSURE VOLUME PRESSAVG GPRESSAVG
ENERGY: 0 0.5388 10.6124 3.3571 0.0000 -10836.1285 1472.7151 0.0000 0.0000 1734.2798 -7614.6253 293.1081 -9348.9051 -7614.6253 293.1081 -90.5324 3.7932 30403.0296 -90.5324 3.7932
ENERGY: 300000 1.7156 9.9286 4.8816 0.0000 -10717.6669 1453.9967 0.0000 0.0000 1763.0794 -7484.0650 297.9755 -9247.1444 -7532.1830 296.3170 124.2590 162.4180 30168.7339 -23.6514 54.5526
ENERGY: 600000 0.8846 11.4040 2.4220 0.0000 -10712.4166 1391.7795 0.0000 0.0000 1807.1913 -7498.7352 305.4307 -9305.9265 -7511.7916 298.5873 -586.4313 -508.2613 30643.4566 -156.2521 -79.4097
ENERGY: 900000 1.0319 10.6616 2.6921 0.0000 -10798.8171 1503.3954 0.0000 0.0000 1758.5117 -7522.5243 297.2035 -9281.0360 -7519.2095 299.2870 701.6909 766.5410 30383.8128 -28.4480 37.0612
ENERGY: 1200000 2.1770 10.2857 1.9756 0.0000 -10823.1266 1464.4509 0.0000 0.0000 1806.3832 -7537.8542 305.2942 -9344.2375 -7533.5420 298.5846 -13.0804 25.4663 30602.6929 -71.7615 -10.9473
ENERGY: 1500000 0.8001 12.5021 1.2117 0.0000 -10650.3240 1423.3467 0.0000 0.0000 1789.5077 -7422.9556 302.4421 -9212.4633 -7511.4566 300.0730 -67.9720 -42.7163 30465.3172 -68.1982 -12.2333
TCL: Running FEP window  18: Lambda1 0.1499999999999997 Lambda2 0.09999999999999969 [dLambda -0.05 ]
TCL: Setting parameter firsttimestep to 0
TCL: Setting parameter alchLambda to 0.1499999999999997
Info: NONBONDED TABLE R-SQUARED SPACING: 0.0625
Info: NONBONDED TABLE SIZE: 705 POINTS
TCL: Setting parameter alchLambda2 to 0.09999999999999969
Info: NONBONDED TABLE R-SQUARED SPACING: 0.0625
Info: NONBONDED TABLE SIZE: 705 POINTS
TCL: Running for 1500000 steps
ETITLE: TS BOND ANGLE DIHED IMPRP ELECT VDW BOUNDARY MISC KINETIC TOTAL TEMP POTENTIAL TOTALAVG TEMPAVG PRESSURE GPRESSURE VOLUME PRESSAVG GPRESSAVG
ENERGY: 0 0.8001 12.5021 1.2117 0.0000 -10650.3239 1422.6048 0.0000 0.0000 1788.6281 -7424.5770 302.2934 -9213.2051 -7424.5770 302.2934 -138.3938 -47.5924 30465.3172 -138.3938 -47.5924
ENERGY: 300000 1.0823 8.5511 1.9564 0.0000 -10665.2352 1367.7893 0.0000 0.0000 1804.5047 -7481.3515 304.9767 -9285.8562 -7446.2656 305.2134 -754.2622 -665.9028 30870.9804 -336.6651 -244.8535
ENERGY: 600000 1.4948 7.6633 2.0738 0.0000 -10631.6974 1327.5416 0.0000 0.0000 1762.2870 -7530.6370 297.8415 -9292.9240 -7478.7105 301.7180 -924.1803 -855.6435 30429.7878 -288.7055 -208.7530
ENERGY: 900000 0.6583 13.1153 2.3567 0.0000 -10814.9848 1486.4928 0.0000 0.0000 1757.6957 -7554.6661 297.0656 -9312.3618 -7497.4726 300.5345 202.7510 285.5311 30366.7644 -149.5031 -71.1054
ENERGY: 1200000 1.0588 5.0712 2.7939 0.0000 -10842.2631 1540.6627 0.0000 0.0000 1735.6770 -7556.9995 293.3442 -9292.6765 -7501.6967 300.3421 819.4038 809.2138 30346.1578 -70.6505 -3.5946
ENERGY: 1500000 3.3586 5.8916 0.8844 0.0000 -10809.5638 1460.7803 0.0000 0.0000 1803.3241 -7535.3247 304.7772 -9338.6488 -7508.5236 299.7931 -66.1173 -34.8925 30368.7812 -137.5886 -68.1316
TCL: Running FEP window  19: Lambda1 0.09999999999999969 Lambda2 0.049999999999999684 [dLambda -0.05 ]
TCL: Setting parameter firsttimestep to 0
TCL: Setting parameter alchLambda to 0.09999999999999969
Info: NONBONDED TABLE R-SQUARED SPACING: 0.0625
Info: NONBONDED TABLE SIZE: 705 POINTS
TCL: Setting parameter alchLambda2 to 0.049999999999999684
Info: NONBONDED TABLE R-SQUARED SPACING: 0.0625
Info: NONBONDED TABLE SIZE: 705 POINTS
TCL: Running for 1500000 steps
ETITLE: TS BOND ANGLE DIHED IMPRP ELECT VDW BOUNDARY MISC KINETIC TOTAL TEMP POTENTIAL TOTALAVG TEMPAVG PRESSURE GPRESSURE VOLUME PRESSAVG GPRESSAVG
ENERGY: 0 3.3586 5.8916 0.8844 0.0000 -10809.5634 1460.0588 0.0000 0.0000 1802.4327 -7536.9373 304.6265 -9339.3700 -7536.9373 304.6265 -104.5087 -41.9238 30368.7812 -104.5087 -41.9238
ENERGY: 300000 1.0512 14.5159 2.3239 0.0000 -10799.0986 1471.3144 0.0000 0.0000 1758.7200 -7551.1732 297.2387 -9309.8933 -7478.7486 302.6479 -90.6569 -21.5210 30614.6811 137.2930 202.3609
ENERGY: 600000 1.0147 13.1447 2.2613 0.0000 -10653.3701 1376.3566 0.0000 0.0000 1750.4325 -7510.1603 295.8380 -9260.5928 -7486.6777 301.6328 -664.8498 -601.1803 30880.2111 105.7463 153.3646
ENERGY: 900000 2.6520 7.7645 3.8070 0.0000 -10809.6107 1465.0998 0.0000 0.0000 1757.6793 -7572.6080 297.0628 -9330.2874 -7514.7091 299.8955 -53.9471 32.7996 30394.3103 27.0461 82.0425
ENERGY: 1200000 1.9066 10.4791 3.7978 0.0000 -10798.0788 1485.3607 0.0000 0.0000 1753.6365 -7542.8980 296.3795 -9296.5345 -7524.9021 299.5648 441.6180 476.8032 30092.8649 31.6295 83.0945
ENERGY: 1500000 2.0260 11.3339 0.9366 0.0000 -10826.1567 1492.9562 0.0000 0.0000 1810.1423 -7508.7618 305.9295 -9318.9041 -7522.6572 299.9296 207.8796 235.2634 30483.5524 -79.8030 -23.1380
TCL: Running FEP window  20: Lambda1 0.049999999999999684 Lambda2 0.0    [dLambda -0.049999999999999684]
TCL: Setting parameter firsttimestep to 0
TCL: Setting parameter alchLambda to 0.049999999999999684
Info: NONBONDED TABLE R-SQUARED SPACING: 0.0625
Info: NONBONDED TABLE SIZE: 705 POINTS
TCL: Setting parameter alchLambda2 to 0.0
Info: NONBONDED TABLE R-SQUARED SPACING: 0.0625
Info: NONBONDED TABLE SIZE: 705 POINTS
TCL: Running for 1500000 steps
ETITLE: TS BOND ANGLE DIHED IMPRP ELECT VDW BOUNDARY MISC KINETIC TOTAL TEMP POTENTIAL TOTALAVG TEMPAVG PRESSURE GPRESSURE VOLUME PRESSAVG GPRESSAVG
ENERGY: 0 2.0260 11.3339 0.9366 0.0000 -10826.1563 1493.0855 0.0000 0.0000 1809.2736 -7509.5009 305.7827 -9318.7745 -7509.5009 305.7827 145.1933 232.1834 30483.5524 145.1933 232.1834
ENERGY: 300000 1.4493 7.3712 1.6544 0.0000 -10608.3515 1411.5813 0.0000 0.0000 1824.3052 -7361.9901 308.3231 -9186.2954 -7429.2617 304.3017 -432.7122 -276.6562 31241.1039 -139.3435 -51.0496
ENERGY: 600000 2.1818 12.8051 2.4439 0.0000 -10721.8570 1546.5440 0.0000 0.0000 1747.3915 -7410.4907 295.3241 -9157.8822 -7466.6803 299.6296 689.5198 715.3909 31039.5835 15.2232 91.0256
ENERGY: 900000 3.5116 5.4205 0.9871 0.0000 -10797.0741 1481.9833 0.0000 0.0000 1759.1633 -7546.0084 297.3136 -9305.1716 -7463.6087 301.0059 329.4821 414.3585 30038.2489 -89.0076 -19.8898
ENERGY: 1200000 1.2517 10.8876 3.9926 0.0000 -10766.9847 1439.9103 0.0000 0.0000 1813.6549 -7497.2875 306.5232 -9310.9425 -7478.2877 300.5969 -33.8659 17.5663 29988.2623 -23.5139 39.5855
ENERGY: 1500000 0.7761 5.2255 1.7483 0.0000 -10757.6657 1468.4192 0.0000 0.0000 1793.7454 -7487.7511 303.1583 -9281.4965 -7483.9527 300.8202 187.3947 276.5378 30341.5552 -20.4915 40.6364
TCL: Exiting due to exit command.
