Info: SIMULATION PARAMETERS:
Info: TIMESTEP               2
Info: NUMBER OF STEPS        0
Info: STEPS PER CYCLE        10
Info: PERIODIC CELL BASIS 1  30.2907 0 0
Info: PERIODIC CELL BASIS 2  0 28.4763 0
Info: PERIODIC CELL BASIS 3  0 0 35.0016
Info: PERIODIC CELL CENTER   0 0 0
Info: WRAPPING WATERS AROUND PERIODIC BOUNDARIES ON OUTPUT.
Info: WRAPPING ALL CLUSTERS AROUND PERIODIC BOUNDARIES ON OUTPUT.
Info: FIRST LDB TIMESTEP     50
Info: LAST LDB TIMESTEP     -1
Info: HOM BACKGROUND SCALING 1
Info: PME BACKGROUND SCALING 1
Info: MIN ATOMS PER PATCH    40
Info: EMPTY PATCH LOAD       40 ATOMS
Info: VELOCITY FILE          mobley_1592519_equil.vel
Info: CENTER OF MASS MOVING INITIALLY? NO
Info: DIELECTRIC             1
Info: EXCLUDE                SCALED ONE-FOUR
Info: 1-4 ELECTROSTATICS SCALED BY 0.833333
Info: MODIFIED 1-4 VDW PARAMETERS WILL BE USED
Info: DCD FILENAME           mobley_1592519_prod.dcd
Info: DCD FREQUENCY          100000
Info: DCD FIRST STEP         100000
Info: DCD FILE WILL CONTAIN UNIT CELL DATA
Info: XST FILENAME           mobley_1592519_prod.xst
Info: XST FREQUENCY          100000
Info: NO VELOCITY DCD OUTPUT
Info: NO FORCE DCD OUTPUT
Info: OUTPUT FILENAME        mobley_1592519_prod
Info: BINARY OUTPUT FILES WILL BE USED
Info: RESTART FILENAME       mobley_1592519_prod.restart
Info: RESTART FREQUENCY      100000
Info: BINARY RESTART FILES WILL BE USED
Info: CUTOFF                 9
Info: PAIRLIST DISTANCE      11
Info: PAIRLIST SHRINK RATE   0.01
Info: PAIRLIST GROW RATE     0.01
Info: PAIRLIST TRIGGER       0.3
Info: PAIRLISTS PER CYCLE    2
Info: PAIRLISTS ENABLED
Info: MARGIN                 2
Info: HYDROGEN GROUP CUTOFF  2.5
Info: PATCH DIMENSION        15.5
Info: ENERGY OUTPUT STEPS    100000
Info: ENERGY EVALUATION STEPS    100000
Info: OUTPUT ENERGY PRECISION 4
Info: CROSSTERM ENERGY INCLUDED IN DIHEDRAL
Info: TIMING OUTPUT STEPS    1000000
Info: PRESSURE OUTPUT STEPS  100000
Info: ALCHEMICAL FEP ON
Info: FEP CURRENT LAMBDA VALUE     1
Info: FEP COMPARISON LAMBDA VALUE  0.95
Info: FEP INTRA-ALCHEMICAL NON-BONDED INTERACTIONS WILL BE RETAINED
Info: FEP INTRA-ALCHEMICAL BONDED INTERACTIONS WILL BE RETAINED
Info: FEP VDW SHIFTING COEFFICIENT 5
Info: FEP ELEC. ACTIVE FOR ANNIHILATED PARTICLES BETWEEN LAMBDA = 0 AND LAMBDA = 0.5
Info: FEP ELEC. ACTIVE FOR EXNIHILATED PARTICLES BETWEEN LAMBDA = 0.5 AND LAMBDA = 1
Info: FEP VDW ACTIVE FOR ANNIHILATED PARTICLES BETWEEN LAMBDA = 0 AND LAMBDA = 1
Info: FEP VDW ACTIVE FOR EXNIHILATED PARTICLES BETWEEN LAMBDA = 0 AND LAMBDA = 1
Info: FEP BOND ACTIVE FOR ANNIHILATED PARTICLES BETWEEN LAMBDA = 1 AND LAMBDA = 1
Info: FEP BOND ACTIVE FOR EXNIHILATED PARTICLES BETWEEN LAMBDA = 0 AND LAMBDA = 0
Info: LANGEVIN DYNAMICS ACTIVE
Info: LANGEVIN TEMPERATURE   300
Info: LANGEVIN USING BBK INTEGRATOR
Info: LANGEVIN DAMPING COEFFICIENT IS 1 INVERSE PS
Info: LANGEVIN DYNAMICS APPLIED TO HYDROGENS
Info: LANGEVIN PISTON PRESSURE CONTROL ACTIVE
Info:        TARGET PRESSURE IS 1.01325 BAR
Info:     OSCILLATION PERIOD IS 50 FS
Info:             DECAY TIME IS 25 FS
Info:     PISTON TEMPERATURE IS 300 K
Info:       PRESSURE CONTROL IS GROUP-BASED
Info:    INITIAL STRAIN RATE IS -0.000217537 -0.000217537 -0.000217537
Info:       CELL FLUCTUATION IS ISOTROPIC
Info: PARTICLE MESH EWALD (PME) ACTIVE
Info: PME TOLERANCE               1e-06
Info: PME EWALD COEFFICIENT       0.348832
Info: PME INTERPOLATION ORDER     4
Info: PME GRID DIMENSIONS         32 32 36
Info: PME MAXIMUM GRID SPACING    1
Info: PME CALCULATION WILL BE PERFORMED ON GPU
Info: FULL ELECTROSTATIC EVALUATION FREQUENCY      2
Info: USING VERLET I (r-RESPA) MTS SCHEME.
Info: C1 SPLITTING OF LONG RANGE ELECTROSTATICS
Info: PLACING ATOMS IN PATCHES BY HYDROGEN GROUPS
Info: RIGID BONDS TO HYDROGEN : ALL
Info:         ERROR TOLERANCE : 1e-08
Info:          MAX ITERATIONS : 100
Info: RIGID WATER USING SETTLE ALGORITHM
Info: RANDOM NUMBER SEED     1744023881
Info: USE HYDROGEN BONDS?    NO
Info: Using AMBER format force field!
Info: AMBER PARM FILE        mobley_1592519.prmtop
Info: COORDINATE PDB         mobley_1592519.pdb
Info: Exclusions will be read from PARM file!
Info: SCNB (VDW SCALING)     2
Info: USING ARITHMETIC MEAN TO COMBINE L-J SIGMA PARAMETERS
Info: BINARY COORDINATES     mobley_1592519_equil.coor
Info: SUMMARY OF PARAMETERS:
Info: 9 BONDS
Info: 13 ANGLES
Info:   13 HARMONIC
Info:   0 COSINE-BASED
Info: 20 DIHEDRAL
Info: 0 IMPROPER
Info: 0 CROSSTERM
Info: 0 VDW
Info: 36 VDW_PAIRS
Info: 0 NBTHOLE_PAIRS
Info: To read alchdata from file: mobley_1592519.pdb
Info: To read alchflag data from column: 5
Info: STRUCTURE SUMMARY:
Info: 2927 ATOMS
Info: 2926 BONDS
Info: 46 ANGLES
Info: 72 DIHEDRALS
Info: 0 IMPROPERS
Info: 0 CROSSTERMS
Info: 3028 EXCLUSIONS
Info: 2917 RIGID BONDS
Info: ALCH: 0 ATOMS TO DISAPPEAR IN FINAL STATE
Info: ALCH: 26 ATOMS TO APPEAR IN FINAL STATE
Info: 5864 DEGREES OF FREEDOM
Info: 977 HYDROGEN GROUPS
Info: 4 ATOMS IN LARGEST HYDROGEN GROUP
Info: 977 MIGRATION GROUPS
Info: 4 ATOMS IN LARGEST MIGRATION GROUP
Info: TOTAL MASS = 17565.7 amu
Info: TOTAL CHARGE = -0.000200029 e
Info: MASS DENSITY = 0.966148 g/cm^3
Info: ATOM DENSITY = 0.0969487 atoms/A^3
Info: ADDED 0 IMPLICIT EXCLUSIONS
Info: NONBONDED TABLE R-SQUARED SPACING: 0.0625
Info: NONBONDED TABLE SIZE: 705 POINTS
Info: REMOVING COM VELOCITY 0.179633 -0.151455 -0.0247325
Info: Use 3D box decompostion in PME FFT.
Info: Updated CUDA force table with 4096 elements.
Info: Updated CUDA LJ table with 8 x 8 elements.
Info: Found 27 unique exclusion lists needing 92 bytes
TCL: Running for 1500000 steps
ETITLE: TS BOND ANGLE DIHED IMPRP ELECT VDW BOUNDARY MISC KINETIC TOTAL TEMP POTENTIAL TOTALAVG TEMPAVG PRESSURE GPRESSURE VOLUME PRESSAVG GPRESSAVG
ENERGY: 0 2.0717 15.8375 7.0526 0.0000 -10614.0327 1427.9589 0.0000 0.0000 1740.8020 -7420.3100 298.7761 -9161.1120 -7420.3100 298.7761 -77.9567 10.1928 30191.2234 -77.9567 10.1928
ENERGY: 300000 2.6755 9.7240 6.3203 0.0000 -10500.6591 1365.2150 0.0000 0.0000 1732.7159 -7384.0083 297.3882 -9116.7242 -7412.5715 298.4180 -400.6272 -313.7650 30287.3354 76.4148 151.4099
ENERGY: 600000 3.0671 12.0137 6.3920 0.0000 -10527.2479 1374.7493 0.0000 0.0000 1694.5430 -7436.4828 290.8366 -9131.0258 -7409.7191 296.5664 -182.9352 -114.1652 30267.9602 -39.0774 24.4667
ENERGY: 900000 1.1046 12.0863 5.7383 0.0000 -10546.2071 1368.0805 0.0000 0.0000 1677.6888 -7481.5086 287.9439 -9159.1974 -7409.4358 296.6736 -610.0630 -514.5450 30372.7027 -3.0382 61.8689
ENERGY: 1200000 2.1347 10.4064 5.1900 0.0000 -10471.2667 1312.0797 0.0000 0.0000 1728.5095 -7412.9464 296.6663 -9141.4558 -7401.7403 297.8940 -911.3365 -867.8583 30452.3278 -21.9372 43.2328
ENERGY: 1500000 1.5121 12.5584 7.6321 0.0000 -10586.6957 1350.1010 0.0000 0.0000 1755.5797 -7459.3123 301.3124 -9214.8920 -7397.7388 298.0928 -646.5595 -629.0449 30248.0739 -129.0619 -71.4207
TCL: Running FEP window   2: Lambda1 0.95   Lambda2 0.8999999999999999 [dLambda -0.050000000000000044]
TCL: Setting parameter firsttimestep to 0
TCL: Setting parameter alchLambda to 0.95
Info: NONBONDED TABLE R-SQUARED SPACING: 0.0625
Info: NONBONDED TABLE SIZE: 705 POINTS
TCL: Setting parameter alchLambda2 to 0.8999999999999999
Info: NONBONDED TABLE R-SQUARED SPACING: 0.0625
Info: NONBONDED TABLE SIZE: 705 POINTS
TCL: Running for 1500000 steps
ETITLE: TS BOND ANGLE DIHED IMPRP ELECT VDW BOUNDARY MISC KINETIC TOTAL TEMP POTENTIAL TOTALAVG TEMPAVG PRESSURE GPRESSURE VOLUME PRESSAVG GPRESSAVG
ENERGY: 0 1.5121 12.5584 7.6321 0.0000 -10585.4703 1350.4624 0.0000 0.0000 1754.7213 -7458.5839 301.1651 -9213.3053 -7458.5839 301.1651 -727.6031 -636.3216 30248.0739 -727.6031 -636.3216
ENERGY: 300000 1.0821 11.2566 7.4581 0.0000 -10472.5101 1351.7285 0.0000 0.0000 1751.6632 -7349.3215 300.6402 -9100.9848 -7428.1946 299.5553 -354.5279 -243.7746 29948.8074 -618.6692 -498.7474
ENERGY: 600000 4.9722 12.6337 5.7966 0.0000 -10723.7994 1486.7666 0.0000 0.0000 1715.5030 -7498.1274 294.4340 -9213.6303 -7425.2163 298.4458 234.0775 308.2031 30036.0574 -393.3593 -300.8235
ENERGY: 900000 1.4632 11.1587 6.8722 0.0000 -10676.8643 1479.5709 0.0000 0.0000 1766.0036 -7411.7956 303.1014 -9177.7992 -7412.9434 300.2016 614.7833 658.8537 29911.8698 -233.8994 -162.4344
ENERGY: 1200000 1.9315 11.2354 6.2261 0.0000 -10554.0794 1407.2670 0.0000 0.0000 1740.7305 -7386.6888 298.7638 -9127.4194 -7396.8576 300.3667 2.0726 49.0277 29995.1631 -139.8506 -70.5649
ENERGY: 1500000 0.7665 18.3463 7.5768 0.0000 -10642.0752 1483.8015 0.0000 0.0000 1682.1962 -7449.3879 288.7175 -9131.5841 -7408.3793 299.0439 627.6261 642.8842 30149.7164 -155.8308 -91.1275
TCL: Running FEP window   3: Lambda1 0.8999999999999999 Lambda2 0.8499999999999999 [dLambda -0.050000000000000044]
TCL: Setting parameter firsttimestep to 0
TCL: Setting parameter alchLambda to 0.8999999999999999
Info: NONBONDED TABLE R-SQUARED SPACING: 0.0625
Info: NONBONDED TABLE SIZE: 705 POINTS
TCL: Setting parameter alchLambda2 to 0.8499999999999999
Info: NONBONDED TABLE R-SQUARED SPACING: 0.0625
Info: NONBONDED TABLE SIZE: 705 POINTS
TCL: Running for 1500000 steps
ETITLE: TS BOND ANGLE DIHED IMPRP ELECT VDW BOUNDARY MISC KINETIC TOTAL TEMP POTENTIAL TOTALAVG TEMPAVG PRESSURE GPRESSURE VOLUME PRESSAVG GPRESSAVG
ENERGY: 0 0.7665 18.3463 7.5768 0.0000 -10640.6532 1483.8251 0.0000 0.0000 1681.3099 -7448.8286 288.5654 -9130.1385 -7448.8286 288.5654 552.4599 625.8053 30149.7164 552.4599 625.8053
ENERGY: 300000 2.9892 15.2648 4.6830 0.0000 -10553.2312 1420.8102 0.0000 0.0000 1731.1461 -7378.3379 297.1188 -9109.4840 -7436.8218 296.3793 -48.0021 58.2851 30124.8887 131.7331 209.1309
ENERGY: 600000 4.7532 11.2492 6.6374 0.0000 -10538.8765 1434.2044 0.0000 0.0000 1762.6672 -7319.3650 302.5288 -9082.0323 -7402.7819 298.9600 147.8514 268.1098 30249.0617 121.0658 198.4681
ENERGY: 900000 2.9287 13.1433 4.3874 0.0000 -10590.4146 1404.4222 0.0000 0.0000 1772.0484 -7393.4847 304.1389 -9165.5330 -7404.3992 298.2726 -11.0512 -44.7317 30071.7011 89.6421 154.1708
ENERGY: 1200000 2.5528 13.6363 5.7575 0.0000 -10665.7256 1427.2269 0.0000 0.0000 1766.4512 -7450.1009 303.1783 -9216.5521 -7404.5473 298.4967 139.9357 136.1100 30111.2083 46.4245 96.5953
ENERGY: 1500000 1.3563 7.4416 5.8270 0.0000 -10416.2983 1328.5357 0.0000 0.0000 1766.0927 -7307.0450 303.1167 -9073.1377 -7407.7576 298.6544 -689.2350 -674.8642 30810.0993 -65.4207 -12.4556
TCL: Running FEP window   4: Lambda1 0.8499999999999999 Lambda2 0.7999999999999998 [dLambda -0.050000000000000044]
TCL: Setting parameter firsttimestep to 0
TCL: Setting parameter alchLambda to 0.8499999999999999
Info: NONBONDED TABLE R-SQUARED SPACING: 0.0625
Info: NONBONDED TABLE SIZE: 705 POINTS
TCL: Setting parameter alchLambda2 to 0.7999999999999998
Info: NONBONDED TABLE R-SQUARED SPACING: 0.0625
Info: NONBONDED TABLE SIZE: 705 POINTS
TCL: Running for 1500000 steps
ETITLE: TS BOND ANGLE DIHED IMPRP ELECT VDW BOUNDARY MISC KINETIC TOTAL TEMP POTENTIAL TOTALAVG TEMPAVG PRESSURE GPRESSURE VOLUME PRESSAVG GPRESSAVG
ENERGY: 0 1.3563 7.4416 5.8270 0.0000 -10414.7600 1328.6055 0.0000 0.0000 1765.1941 -7306.3355 302.9625 -9071.5296 -7306.3355 302.9625 -757.9996 -680.9829 30810.0993 -757.9996 -680.9829
ENERGY: 300000 6.6720 15.6787 7.0341 0.0000 -10507.8423 1350.3545 0.0000 0.0000 1728.5487 -7399.5543 296.6730 -9128.1030 -7403.1580 298.1558 -385.6059 -326.8320 29754.7881 -328.6367 -238.7140
ENERGY: 600000 2.0020 10.1422 6.1324 0.0000 -10561.6110 1406.5395 0.0000 0.0000 1758.9845 -7377.8104 301.8968 -9136.7949 -7407.8184 297.6038 -86.5325 -5.3694 30156.9823 -361.1808 -275.2799
ENERGY: 900000 6.6786 12.4225 7.6562 0.0000 -10741.9142 1497.0321 0.0000 0.0000 1750.1247 -7468.0003 300.3761 -9218.1250 -7412.1359 299.1951 129.2726 214.0532 30292.2042 -126.6586 -64.0316
ENERGY: 1200000 3.0257 13.5948 8.3183 0.0000 -10527.6233 1360.8606 0.0000 0.0000 1784.0878 -7357.7361 306.2053 -9141.8239 -7404.4702 300.5175 -436.6758 -399.2088 30130.1132 -74.0849 -10.2278
ENERGY: 1500000 2.6062 12.1729 4.6615 0.0000 -10662.1787 1478.9753 0.0000 0.0000 1726.4429 -7437.3199 296.3116 -9163.7628 -7398.6368 300.2597 340.8032 432.2553 29998.8633 36.9504 98.9947
TCL: Running FEP window   5: Lambda1 0.7999999999999998 Lambda2 0.7499999999999998 [dLambda -0.050000000000000044]
TCL: Setting parameter firsttimestep to 0
TCL: Setting parameter alchLambda to 0.7999999999999998
Info: NONBONDED TABLE R-SQUARED SPACING: 0.0625
Info: NONBONDED TABLE SIZE: 705 POINTS
TCL: Setting parameter alchLambda2 to 0.7499999999999998
Info: NONBONDED TABLE R-SQUARED SPACING: 0.0625
Info: NONBONDED TABLE SIZE: 705 POINTS
TCL: Running for 1500000 steps
ETITLE: TS BOND ANGLE DIHED IMPRP ELECT VDW BOUNDARY MISC KINETIC TOTAL TEMP POTENTIAL TOTALAVG TEMPAVG PRESSURE GPRESSURE VOLUME PRESSAVG GPRESSAVG
ENERGY: 0 2.6062 12.1729 4.6615 0.0000 -10660.4230 1478.4896 0.0000 0.0000 1725.5606 -7436.9323 296.1602 -9162.4928 -7436.9323 296.1602 336.3041 417.7126 29998.8633 336.3041 417.7126
ENERGY: 300000 2.8131 10.5474 7.2300 0.0000 -10821.0818 1567.6265 0.0000 0.0000 1701.7898 -7531.0750 292.0803 -9232.8647 -7465.4112 294.6254 1105.0615 1197.7035 29606.5537 286.0361 352.6550
ENERGY: 600000 5.7981 13.5788 5.6535 0.0000 -10600.7559 1418.6069 0.0000 0.0000 1707.2057 -7449.9130 293.0099 -9157.1186 -7448.4823 296.1677 -327.6718 -360.1284 30427.0759 35.7981 85.4971
ENERGY: 900000 2.7071 12.0382 5.0440 0.0000 -10461.6871 1426.8960 0.0000 0.0000 1736.9396 -7278.0623 298.1131 -9015.0019 -7409.1027 296.7229 295.5956 318.5023 30446.7810 93.5361 143.2468
ENERGY: 1200000 3.2040 10.5187 7.9385 0.0000 -10550.9027 1433.3787 0.0000 0.0000 1755.2718 -7340.5910 301.2595 -9095.8628 -7407.4384 297.9987 101.2596 232.3659 30342.6141 59.8967 118.0015
ENERGY: 1500000 1.9109 15.4847 4.5132 0.0000 -10653.8136 1434.0701 0.0000 0.0000 1791.8058 -7406.0290 307.5299 -9197.8348 -7410.3304 299.5159 378.4253 467.3656 29360.4752 115.0117 177.3688
TCL: Running FEP window   6: Lambda1 0.7499999999999998 Lambda2 0.6999999999999997 [dLambda -0.050000000000000044]
TCL: Setting parameter firsttimestep to 0
TCL: Setting parameter alchLambda to 0.7499999999999998
Info: NONBONDED TABLE R-SQUARED SPACING: 0.0625
Info: NONBONDED TABLE SIZE: 705 POINTS
TCL: Setting parameter alchLambda2 to 0.6999999999999997
Info: NONBONDED TABLE R-SQUARED SPACING: 0.0625
Info: NONBONDED TABLE SIZE: 705 POINTS
TCL: Running for 1500000 steps
ETITLE: TS BOND ANGLE DIHED IMPRP ELECT VDW BOUNDARY MISC KINETIC TOTAL TEMP POTENTIAL TOTALAVG TEMPAVG PRESSURE GPRESSURE VOLUME PRESSAVG GPRESSAVG
ENERGY: 0 1.9108 15.4847 4.5132 0.0000 -10652.1604 1433.8038 0.0000 0.0000 1790.9366 -7405.5113 307.3807 -9196.4479 -7405.5113 307.3807 372.3423 450.4253 29360.4752 372.3423 450.4253
ENERGY: 300000 3.1500 14.9591 6.6163 0.0000 -10407.1964 1321.3241 0.0000 0.0000 1692.6626 -7368.4843 290.5138 -9061.1469 -7379.9839 301.4839 -731.3429 -659.3100 30419.2222 122.7005 216.0633
ENERGY: 600000 1.7979 12.4206 5.7232 0.0000 -10517.5954 1388.4286 0.0000 0.0000 1726.9410 -7382.2841 296.3971 -9109.2250 -7388.4862 302.3180 -275.3156 -145.3647 30376.3931 186.1954 266.7922
ENERGY: 900000 3.5776 9.0023 7.3746 0.0000 -10502.6925 1399.0830 0.0000 0.0000 1719.3600 -7364.2950 295.0959 -9083.6550 -7397.0913 300.8557 11.7480 3.9361 30016.3950 94.4126 168.8682
ENERGY: 1200000 2.5318 9.0678 8.2332 0.0000 -10637.1147 1446.7035 0.0000 0.0000 1738.3264 -7432.2521 298.3512 -9170.5785 -7397.8355 300.3659 -108.7678 -60.3391 30492.4449 -6.7047 58.8974
ENERGY: 1500000 1.0038 11.7526 10.3453 0.0000 -10479.4714 1376.8542 0.0000 0.0000 1762.3205 -7317.1950 302.4693 -9079.5155 -7383.3998 301.1613 -116.6466 -66.9361 30085.8564 -67.5048 -6.1465
TCL: Running FEP window   7: Lambda1 0.6999999999999997 Lambda2 0.6499999999999997 [dLambda -0.050000000000000044]
TCL: Setting parameter firsttimestep to 0
TCL: Setting parameter alchLambda to 0.6999999999999997
Info: NONBONDED TABLE R-SQUARED SPACING: 0.0625
Info: NONBONDED TABLE SIZE: 705 POINTS
TCL: Setting parameter alchLambda2 to 0.6499999999999997
Info: NONBONDED TABLE R-SQUARED SPACING: 0.0625
Info: NONBONDED TABLE SIZE: 705 POINTS
TCL: Running for 1500000 steps
ETITLE: TS BOND ANGLE DIHED IMPRP ELECT VDW BOUNDARY MISC KINETIC TOTAL TEMP POTENTIAL TOTALAVG TEMPAVG PRESSURE GPRESSURE VOLUME PRESSAVG GPRESSAVG
ENERGY: 0 1.0038 11.7526 10.3453 0.0000 -10478.9561 1377.6013 0.0000 0.0000 1761.4536 -7316.7995 302.3205 -9078.2532 -7316.7995 302.3205 -144.8264 -71.5936 30085.8564 -144.8264 -71.5936
ENERGY: 300000 1.8779 13.8539 6.5382 0.0000 -10713.8524 1536.6824 0.0000 0.0000 1745.7482 -7409.1518 299.6250 -9154.9000 -7371.1072 301.5042 1245.4855 1295.8922 29669.0076 -8.9662 40.4296
ENERGY: 600000 1.2642 12.8179 6.2041 0.0000 -10530.8626 1428.5062 0.0000 0.0000 1744.6723 -7337.3978 299.4403 -9082.0702 -7363.8050 300.1703 121.9075 195.5893 30125.2551 -127.6056 -72.6369
ENERGY: 900000 2.0826 7.5680 6.9627 0.0000 -10504.8387 1378.4069 0.0000 0.0000 1754.7808 -7355.0377 301.1753 -9109.8185 -7365.5587 300.8298 -274.9704 -214.7734 30139.8855 -148.3566 -97.9912
ENERGY: 1200000 2.1201 12.1743 5.9333 0.0000 -10466.6556 1377.9935 0.0000 0.0000 1731.8476 -7336.5867 297.2392 -9068.4343 -7371.2394 299.9743 -28.0590 37.2861 30298.4524 -187.7441 -135.2383
ENERGY: 1500000 2.1922 9.5703 5.7951 0.0000 -10674.0710 1496.9345 0.0000 0.0000 1678.6326 -7480.9463 288.1058 -9159.5789 -7369.5793 299.6719 665.2967 677.6935 30026.6729 -143.3695 -93.9842
TCL: Running FEP window   8: Lambda1 0.6499999999999997 Lambda2 0.5999999999999996 [dLambda -0.050000000000000044]
TCL: Setting parameter firsttimestep to 0
TCL: Setting parameter alchLambda to 0.6499999999999997
Info: NONBONDED TABLE R-SQUARED SPACING: 0.0625
Info: NONBONDED TABLE SIZE: 705 POINTS
TCL: Setting parameter alchLambda2 to 0.5999999999999996
Info: NONBONDED TABLE R-SQUARED SPACING: 0.0625
Info: NONBONDED TABLE SIZE: 705 POINTS
TCL: Running for 1500000 steps
ETITLE: TS BOND ANGLE DIHED IMPRP ELECT VDW BOUNDARY MISC KINETIC TOTAL TEMP POTENTIAL TOTALAVG TEMPAVG PRESSURE GPRESSURE VOLUME PRESSAVG GPRESSAVG
ENERGY: 0 2.1922 9.5703 5.7951 0.0000 -10673.2425 1497.1007 0.0000 0.0000 1677.7212 -7480.8631 287.9494 -9158.5842 -7480.8631 287.9494 580.6536 667.7384 30026.6729 580.6536 667.7384
ENERGY: 300000 2.0426 14.0356 7.2267 0.0000 -10630.9519 1428.8133 0.0000 0.0000 1765.5450 -7413.2888 303.0227 -9178.8338 -7455.2593 296.3115 25.5818 120.4641 29898.2468 311.6756 392.8752
ENERGY: 600000 2.2993 15.4594 7.5953 0.0000 -10505.6332 1375.6445 0.0000 0.0000 1769.7348 -7334.8999 303.7418 -9104.6347 -7401.3781 297.3284 -378.3895 -311.5581 30248.9253 86.2451 170.0413
ENERGY: 900000 2.3160 13.9718 5.8044 0.0000 -10496.0682 1389.8780 0.0000 0.0000 1731.9897 -7352.1082 297.2636 -9084.0979 -7379.6742 297.4670 153.6523 190.9050 29842.3451 127.6952 193.3044
ENERGY: 1200000 4.5451 9.8855 7.6237 0.0000 -10593.0272 1394.7090 0.0000 0.0000 1749.7791 -7426.4847 300.3168 -9176.2639 -7388.6752 298.1723 -338.4717 -281.1799 30093.3504 19.7643 82.3772
ENERGY: 1500000 2.3149 12.5975 5.7933 0.0000 -10520.8176 1370.5368 0.0000 0.0000 1695.6554 -7433.9197 291.0275 -9129.5750 -7387.9735 298.2616 -197.5358 -153.1001 29973.1217 -21.1160 50.4885
TCL: Running FEP window   9: Lambda1 0.5999999999999996 Lambda2 0.5499999999999996 [dLambda -0.050000000000000044]
TCL: Setting parameter firsttimestep to 0
TCL: Setting parameter alchLambda to 0.5999999999999996
Info: NONBONDED TABLE R-SQUARED SPACING: 0.0625
Info: NONBONDED TABLE SIZE: 705 POINTS
TCL: Setting parameter alchLambda2 to 0.5499999999999996
Info: NONBONDED TABLE R-SQUARED SPACING: 0.0625
Info: NONBONDED TABLE SIZE: 705 POINTS
TCL: Running for 1500000 steps
ETITLE: TS BOND ANGLE DIHED IMPRP ELECT VDW BOUNDARY MISC KINETIC TOTAL TEMP POTENTIAL TOTALAVG TEMPAVG PRESSURE GPRESSURE VOLUME PRESSAVG GPRESSAVG
ENERGY: 0 2.3150 12.5975 5.7933 0.0000 -10520.2559 1370.8152 0.0000 0.0000 1694.7870 -7433.9478 290.8784 -9128.7348 -7433.9478 290.8784 -251.4849 -159.4093 29973.1217 -251.4849 -159.4093
ENERGY: 300000 1.3907 11.8516 6.8070 0.0000 -10645.6954 1439.4362 0.0000 0.0000 1778.5434 -7407.6666 305.2537 -9186.2100 -7405.7832 298.7985 271.4983 368.3213 29509.3325 -137.9566 -70.5849
ENERGY: 600000 2.8615 8.9896 8.9489 0.0000 -10627.8085 1398.3107 0.0000 0.0000 1764.2396 -7444.4581 302.7987 -9208.6978 -7410.1187 300.0850 -263.5142 -190.2386 29622.2743 4.5701 75.2150
ENERGY: 900000 3.5834 10.1868 8.0895 0.0000 -10458.6455 1391.0122 0.0000 0.0000 1796.7027 -7249.0709 308.3704 -9045.7736 -7386.6945 301.0457 -30.3247 6.3209 30474.1750 -36.9273 21.6750
ENERGY: 1200000 3.8755 11.4633 7.7864 0.0000 -10619.1225 1407.7075 0.0000 0.0000 1755.3043 -7432.9856 301.2651 -9188.2899 -7378.7714 301.3445 4.5140 108.5845 29527.7570 -45.2215 16.2399
ENERGY: 1500000 3.1704 11.3577 5.8409 0.0000 -10637.7139 1441.5254 0.0000 0.0000 1767.2669 -7408.5526 303.3183 -9175.8195 -7387.1852 300.8445 209.4023 270.5792 29714.4896 -77.4080 -15.0079
TCL: Running FEP window  10: Lambda1 0.5499999999999996 Lambda2 0.4999999999999996 [dLambda -0.04999999999999999]
TCL: Setting parameter firsttimestep to 0
TCL: Setting parameter alchLambda to 0.5499999999999996
Info: NONBONDED TABLE R-SQUARED SPACING: 0.0625
Info: NONBONDED TABLE SIZE: 705 POINTS
TCL: Setting parameter alchLambda2 to 0.4999999999999996
Info: NONBONDED TABLE R-SQUARED SPACING: 0.0625
Info: NONBONDED TABLE SIZE: 705 POINTS
TCL: Running for 1500000 steps
ETITLE: TS BOND ANGLE DIHED IMPRP ELECT VDW BOUNDARY MISC KINETIC TOTAL TEMP POTENTIAL TOTALAVG TEMPAVG PRESSURE GPRESSURE VOLUME PRESSAVG GPRESSAVG
ENERGY: 0 3.1704 11.3577 5.8409 0.0000 -10637.2388 1441.9125 0.0000 0.0000 1766.3702 -7408.5871 303.1644 -9174.9574 -7408.5871 303.1644 178.2166 261.2873 29714.4896 178.2166 261.2873
ENERGY: 300000 1.3422 10.6406 6.7914 0.0000 -10522.9863 1403.6096 0.0000 0.0000 1715.4121 -7385.1903 294.4184 -9100.6024 -7395.3221 299.6864 -150.3496 -76.8110 30179.0521 -160.8553 -88.3690
ENERGY: 600000 1.1236 8.2585 6.4397 0.0000 -10605.2036 1413.1969 0.0000 0.0000 1736.6751 -7439.5098 298.0678 -9176.1848 -7379.1045 299.5318 -225.2731 -134.3536 29965.4708 92.5415 146.4311
ENERGY: 900000 1.1013 11.9340 7.1378 0.0000 -10637.0088 1419.1603 0.0000 0.0000 1694.1170 -7503.5584 290.7635 -9197.6754 -7382.7114 300.3805 -419.5161 -268.8049 30195.2444 62.8622 137.1958
ENERGY: 1200000 1.7344 13.0864 4.8435 0.0000 -10448.3435 1354.3726 0.0000 0.0000 1757.8915 -7316.4152 301.7092 -9074.3067 -7378.9331 301.1341 -568.5961 -476.2139 30621.0909 -40.4273 35.4249
ENERGY: 1500000 2.9149 10.9857 6.8783 0.0000 -10592.6304 1467.4472 0.0000 0.0000 1751.2910 -7353.1133 300.5763 -9104.4043 -7374.4885 301.3751 399.8540 486.6480 29970.2012 -15.1991 59.0044
TCL: Running FEP window  11: Lambda1 0.4999999999999996 Lambda2 0.4499999999999996 [dLambda -0.04999999999999999]
TCL: Setting parameter firsttimestep to 0
TCL: Setting parameter alchLambda to 0.4999999999999996
Info: NONBONDED TABLE R-SQUARED SPACING: 0.0625
Info: NONBONDED TABLE SIZE: 705 POINTS
TCL: Setting parameter alchLambda2 to 0.4499999999999996
Info: NONBONDED TABLE R-SQUARED SPACING: 0.0625
Info: NONBONDED TABLE SIZE: 705 POINTS
TCL: Running for 1500000 steps
ETITLE: TS BOND ANGLE DIHED IMPRP ELECT VDW BOUNDARY MISC KINETIC TOTAL TEMP POTENTIAL TOTALAVG TEMPAVG PRESSURE GPRESSURE VOLUME PRESSAVG GPRESSAVG
ENERGY: 0 2.9149 10.9857 6.8783 0.0000 -10592.5829 1467.6729 0.0000 0.0000 1750.4052 -7353.7259 300.4243 -9104.1311 -7353.7259 300.4243 391.3419 475.7096 29970.2012 391.3419 475.7096
ENERGY: 300000 2.9977 7.5300 5.4609 0.0000 -10614.8034 1401.1823 0.0000 0.0000 1781.2882 -7416.3443 305.7248 -9197.6325 -7406.0009 303.4154 -184.0076 -102.9974 29863.4161 62.1232 137.0752
ENERGY: 600000 4.5768 14.2550 5.5661 0.0000 -10574.2374 1449.3685 0.0000 0.0000 1733.3751 -7367.0958 297.5014 -9100.4709 -7397.6519 302.8789 170.5496 226.9084 30380.5263 8.8594 73.0179
ENERGY: 900000 4.8586 12.1276 6.2719 0.0000 -10611.8082 1387.8984 0.0000 0.0000 1755.6737 -7444.9780 301.3285 -9200.6518 -7398.1680 302.6597 -505.4720 -486.7508 30019.1901 -74.9493 -19.4102
ENERGY: 1200000 3.4521 10.3239 4.9659 0.0000 -10328.7340 1259.6644 0.0000 0.0000 1729.9995 -7320.3281 296.9220 -9050.3277 -7389.1562 301.8852 -1280.8980 -1281.1894 30729.0275 -183.8944 -130.2834
ENERGY: 1500000 2.9258 14.0914 6.7401 0.0000 -10568.6893 1438.5351 0.0000 0.0000 1726.2611 -7380.1356 296.2804 -9106.3967 -7385.0141 300.9978 79.0443 74.3244 30284.0451 -165.5245 -112.6352
TCL: Running FEP window  12: Lambda1 0.4499999999999996 Lambda2 0.39999999999999963 [dLambda -0.04999999999999999]
TCL: Setting parameter firsttimestep to 0
TCL: Setting parameter alchLambda to 0.4499999999999996
Info: NONBONDED TABLE R-SQUARED SPACING: 0.0625
Info: NONBONDED TABLE SIZE: 705 POINTS
TCL: Setting parameter alchLambda2 to 0.39999999999999963
Info: NONBONDED TABLE R-SQUARED SPACING: 0.0625
Info: NONBONDED TABLE SIZE: 705 POINTS
TCL: Running for 1500000 steps
ETITLE: TS BOND ANGLE DIHED IMPRP ELECT VDW BOUNDARY MISC KINETIC TOTAL TEMP POTENTIAL TOTALAVG TEMPAVG PRESSURE GPRESSURE VOLUME PRESSAVG GPRESSAVG
ENERGY: 0 2.9258 14.0915 6.7401 0.0000 -10568.6903 1438.5135 0.0000 0.0000 1725.3988 -7381.0205 296.1324 -9106.4193 -7381.0205 296.1324 -12.2173 67.4945 30284.0451 -12.2173 67.4945
ENERGY: 300000 3.3283 12.4662 5.4658 0.0000 -10481.0269 1312.2509 0.0000 0.0000 1745.1190 -7402.3967 299.5170 -9147.5157 -7384.8178 301.7868 -898.7818 -873.0242 30002.5875 -32.4061 24.7238
ENERGY: 600000 3.1405 15.8111 8.8079 0.0000 -10428.1795 1316.5307 0.0000 0.0000 1764.3328 -7319.5565 302.8147 -9083.8893 -7386.4373 301.6502 -680.4681 -652.6901 30415.9334 -134.8368 -68.2553
ENERGY: 900000 2.2076 16.7280 7.7666 0.0000 -10700.0988 1478.3117 0.0000 0.0000 1714.0570 -7481.0279 294.1858 -9195.0848 -7407.2349 300.1073 547.0333 585.5573 29695.8529 109.3724 164.6202
ENERGY: 1200000 5.3413 12.0351 8.4548 0.0000 -10560.4384 1394.7558 0.0000 0.0000 1791.7684 -7348.0831 307.5235 -9139.8515 -7397.0947 301.7101 -360.4051 -326.2778 30307.5112 79.0456 129.7047
ENERGY: 1500000 2.0695 10.6744 6.4636 0.0000 -10634.3875 1467.0596 0.0000 0.0000 1708.7621 -7439.3584 293.2770 -9148.1204 -7402.0212 300.8835 190.2439 274.1438 30275.9002 46.9243 102.8911
TCL: Running FEP window  13: Lambda1 0.39999999999999963 Lambda2 0.34999999999999964 [dLambda -0.04999999999999999]
TCL: Setting parameter firsttimestep to 0
TCL: Setting parameter alchLambda to 0.39999999999999963
Info: NONBONDED TABLE R-SQUARED SPACING: 0.0625
Info: NONBONDED TABLE SIZE: 705 POINTS
TCL: Setting parameter alchLambda2 to 0.34999999999999964
Info: NONBONDED TABLE R-SQUARED SPACING: 0.0625
Info: NONBONDED TABLE SIZE: 705 POINTS
TCL: Running for 1500000 steps
ETITLE: TS BOND ANGLE DIHED IMPRP ELECT VDW BOUNDARY MISC KINETIC TOTAL TEMP POTENTIAL TOTALAVG TEMPAVG PRESSURE GPRESSURE VOLUME PRESSAVG GPRESSAVG
ENERGY: 0 2.0696 10.6744 6.4636 0.0000 -10634.3849 1467.1194 0.0000 0.0000 1707.9038 -7440.1542 293.1297 -9148.0579 -7440.1542 293.1297 183.0049 267.4073 30275.9002 183.0049 267.4073
ENERGY: 300000 1.6181 12.5008 6.2558 0.0000 -10526.2256 1385.2388 0.0000 0.0000 1791.7710 -7328.8410 307.5239 -9120.6121 -7392.5766 297.8207 -110.3814 -26.4273 30225.7765 -50.6637 13.6024
ENERGY: 600000 0.7527 9.4262 8.8114 0.0000 -10601.5291 1444.2189 0.0000 0.0000 1751.5796 -7386.7405 300.6258 -9138.3200 -7393.2188 298.9607 160.3649 201.5577 29977.7647 167.2640 226.9580
ENERGY: 900000 4.1233 8.8821 6.6209 0.0000 -10640.5930 1461.3122 0.0000 0.0000 1686.5628 -7473.0918 289.4669 -9159.6546 -7403.3392 297.5297 -113.5085 28.2430 30398.8098 59.2721 113.7591
ENERGY: 1200000 2.0126 12.1687 4.7064 0.0000 -10509.2900 1348.8179 0.0000 0.0000 1733.0266 -7408.5578 297.4416 -9141.5844 -7400.1166 297.1823 -869.4314 -803.3017 30338.8216 -158.2422 -101.1328
ENERGY: 1500000 2.6499 16.4270 6.1850 0.0000 -10718.3901 1503.9384 0.0000 0.0000 1720.4881 -7468.7016 295.2896 -9189.1897 -7412.5562 296.3661 546.2302 603.2901 29702.0416 -53.0074 2.6522
TCL: Running FEP window  14: Lambda1 0.34999999999999964 Lambda2 0.29999999999999966 [dLambda -0.04999999999999999]
TCL: Setting parameter firsttimestep to 0
TCL: Setting parameter alchLambda to 0.34999999999999964
Info: NONBONDED TABLE R-SQUARED SPACING: 0.0625
Info: NONBONDED TABLE SIZE: 705 POINTS
TCL: Setting parameter alchLambda2 to 0.29999999999999966
Info: NONBONDED TABLE R-SQUARED SPACING: 0.0625
Info: NONBONDED TABLE SIZE: 705 POINTS
TCL: Running for 1500000 steps
ETITLE: TS BOND ANGLE DIHED IMPRP ELECT VDW BOUNDARY MISC KINETIC TOTAL TEMP POTENTIAL TOTALAVG TEMPAVG PRESSURE GPRESSURE VOLUME PRESSAVG GPRESSAVG
ENERGY: 0 2.6499 16.4270 6.1850 0.0000 -10718.3902 1503.1568 0.0000 0.0000 1719.6170 -7470.3544 295.1401 -9189.9715 -7470.3544 295.1401 513.3474 585.3480 29702.0416 513.3474 585.3480
ENERGY: 300000 2.1618 12.2714 6.2635 0.0000 -10618.4822 1443.3057 0.0000 0.0000 1774.4061 -7380.0737 304.5436 -9154.4798 -7422.2360 299.3760 -25.1758 71.3493 30174.1235 87.4284 154.3411
ENERGY: 600000 2.6285 11.9799 5.6870 0.0000 -10567.4111 1376.5690 0.0000 0.0000 1699.2601 -7471.2866 291.6462 -9170.5467 -7404.8482 300.6948 -467.4314 -424.5941 29818.5615 13.4885 79.0186
ENERGY: 900000 2.2625 14.4604 6.8697 0.0000 -10631.6105 1449.8753 0.0000 0.0000 1780.4007 -7377.7420 305.5724 -9158.1427 -7397.0924 301.4187 -2.2929 51.6662 30123.3408 -12.3197 50.2909
ENERGY: 1200000 3.5282 7.1312 7.5878 0.0000 -10460.6652 1397.7775 0.0000 0.0000 1680.6080 -7364.0326 288.4449 -9044.6405 -7389.0406 299.9404 -92.7014 27.7430 30105.4221 -22.8377 43.9981
ENERGY: 1500000 1.7573 9.3582 5.9132 0.0000 -10467.6387 1314.6222 0.0000 0.0000 1754.6482 -7381.3395 301.1525 -9135.9878 -7385.5033 300.2901 -705.6420 -662.1697 29901.7833 -72.3751 -9.4946
TCL: Running FEP window  15: Lambda1 0.29999999999999966 Lambda2 0.24999999999999967 [dLambda -0.04999999999999999]
TCL: Setting parameter firsttimestep to 0
TCL: Setting parameter alchLambda to 0.29999999999999966
Info: NONBONDED TABLE R-SQUARED SPACING: 0.0625
Info: NONBONDED TABLE SIZE: 705 POINTS
TCL: Setting parameter alchLambda2 to 0.24999999999999967
Info: NONBONDED TABLE R-SQUARED SPACING: 0.0625
Info: NONBONDED TABLE SIZE: 705 POINTS
TCL: Running for 1500000 steps
ETITLE: TS BOND ANGLE DIHED IMPRP ELECT VDW BOUNDARY MISC KINETIC TOTAL TEMP POTENTIAL TOTALAVG TEMPAVG PRESSURE GPRESSURE VOLUME PRESSAVG GPRESSAVG
ENERGY: 0 1.7573 9.3582 5.9132 0.0000 -10467.6378 1314.9857 0.0000 0.0000 1753.7860 -7381.8374 301.0045 -9135.6234 -7381.8374 301.0045 -754.5693 -666.6098 29901.7833 -754.5693 -666.6098
ENERGY: 300000 1.1103 9.3507 7.5624 0.0000 -10485.2087 1358.8841 0.0000 0.0000 1751.1702 -7357.1310 300.5556 -9108.3012 -7368.7203 300.1623 -305.9247 -224.5830 29718.4347 -431.9849 -352.3912
ENERGY: 600000 2.5109 6.6305 6.8245 0.0000 -10408.2730 1336.0765 0.0000 0.0000 1801.2910 -7254.9397 309.1579 -9056.2307 -7345.4807 302.1548 -378.4837 -372.1369 30135.4228 -358.1682 -289.8129
ENERGY: 900000 0.9391 12.4881 6.1670 0.0000 -10573.8259 1405.0741 0.0000 0.0000 1840.1250 -7309.0326 315.8230 -9149.1576 -7338.2290 303.9696 134.7972 229.9043 29347.7536 -264.1145 -187.5519
ENERGY: 1200000 2.5305 12.0566 5.4512 0.0000 -10637.7116 1475.1655 0.0000 0.0000 1763.1044 -7379.4035 302.6039 -9142.5079 -7331.9186 303.0514 119.8078 214.9984 30345.6191 -211.4505 -132.6156
ENERGY: 1500000 4.5053 8.6043 7.3671 0.0000 -10502.2513 1364.4539 0.0000 0.0000 1763.1330 -7354.1877 302.6088 -9117.3207 -7340.2228 303.1321 -513.7786 -430.5283 30196.8886 -138.4262 -60.9512
TCL: Running FEP window  16: Lambda1 0.24999999999999967 Lambda2 0.19999999999999968 [dLambda -0.04999999999999999]
TCL: Setting parameter firsttimestep to 0
TCL: Setting parameter alchLambda to 0.24999999999999967
Info: NONBONDED TABLE R-SQUARED SPACING: 0.0625
Info: NONBONDED TABLE SIZE: 705 POINTS
TCL: Setting parameter alchLambda2 to 0.19999999999999968
Info: NONBONDED TABLE R-SQUARED SPACING: 0.0625
Info: NONBONDED TABLE SIZE: 705 POINTS
TCL: Running for 1500000 steps
ETITLE: TS BOND ANGLE DIHED IMPRP ELECT VDW BOUNDARY MISC KINETIC TOTAL TEMP POTENTIAL TOTALAVG TEMPAVG PRESSURE GPRESSURE VOLUME PRESSAVG GPRESSAVG
ENERGY: 0 4.5053 8.6043 7.3671 0.0000 -10502.2523 1364.0134 0.0000 0.0000 1762.2683 -7355.4939 302.4604 -9117.7623 -7355.4939 302.4604 -513.3721 -439.0807 30196.8886 -513.3721 -439.0807
ENERGY: 300000 2.1873 13.8457 8.5182 0.0000 -10558.0512 1441.6268 0.0000 0.0000 1695.3641 -7396.5090 290.9775 -9091.8732 -7375.6545 301.4478 -137.1216 -100.7640 30693.0351 -358.5443 -297.3113
ENERGY: 600000 2.8532 14.1786 8.1403 0.0000 -10626.9479 1486.1351 0.0000 0.0000 1770.8935 -7344.7473 303.9407 -9115.6407 -7376.4853 301.2544 551.9363 665.2833 29836.5488 58.5755 130.0472
ENERGY: 900000 4.0741 12.5202 6.9195 0.0000 -10688.8707 1517.0434 0.0000 0.0000 1702.4546 -7445.8589 292.1944 -9148.3135 -7399.9947 299.6249 476.8893 509.0431 30152.3613 48.5371 120.8227
ENERGY: 1200000 2.2892 16.9289 9.4288 0.0000 -10421.1305 1270.8805 0.0000 0.0000 1708.0148 -7413.5883 293.1488 -9121.6031 -7400.9639 299.7142 -1197.0920 -1192.8272 30266.0092 -89.6365 -22.5560
ENERGY: 1500000 3.2758 13.3678 5.5852 0.0000 -10629.2498 1453.3979 0.0000 0.0000 1782.7088 -7370.9143 305.9686 -9153.6231 -7400.1687 300.1589 125.2898 237.1953 30109.7765 -102.7810 -35.0498
TCL: Running FEP window  17: Lambda1 0.19999999999999968 Lambda2 0.1499999999999997 [dLambda -0.04999999999999999]
TCL: Setting parameter firsttimestep to 0
TCL: Setting parameter alchLambda to 0.19999999999999968
Info: NONBONDED TABLE R-SQUARED SPACING: 0.0625
Info: NONBONDED TABLE SIZE: 705 POINTS
TCL: Setting parameter alchLambda2 to 0.1499999999999997
Info: NONBONDED TABLE R-SQUARED SPACING: 0.0625
Info: NONBONDED TABLE SIZE: 705 POINTS
TCL: Running for 1500000 steps
ETITLE: TS BOND ANGLE DIHED IMPRP ELECT VDW BOUNDARY MISC KINETIC TOTAL TEMP POTENTIAL TOTALAVG TEMPAVG PRESSURE GPRESSURE VOLUME PRESSAVG GPRESSAVG
ENERGY: 0 3.2758 13.3678 5.5852 0.0000 -10629.2504 1452.9832 0.0000 0.0000 1781.8137 -7372.2247 305.8149 -9154.0384 -7372.2247 305.8149 143.0366 228.9641 30109.7765 143.0366 228.9641
ENERGY: 300000 1.3944 10.9055 3.7508 0.0000 -10543.4302 1397.1770 0.0000 0.0000 1770.6780 -7359.5246 303.9037 -9130.2026 -7372.1968 303.8571 -409.3278 -323.2538 30270.7861 -270.4785 -212.2474
ENERGY: 600000 3.1895 18.1943 5.9865 0.0000 -10596.2846 1473.7385 0.0000 0.0000 1769.2781 -7325.8977 303.6634 -9095.1757 -7368.1356 302.8356 478.7215 625.3814 29780.2462 -147.0938 -71.9608
ENERGY: 900000 2.1545 6.6058 5.1663 0.0000 -10637.3832 1450.6388 0.0000 0.0000 1721.8013 -7451.0165 295.5149 -9172.8178 -7386.0373 301.6704 159.7101 190.4433 29893.9184 -92.9235 -24.4833
ENERGY: 1200000 2.9666 14.4013 7.7868 0.0000 -10552.2827 1392.6698 0.0000 0.0000 1723.8503 -7410.6079 295.8666 -9134.4582 -7381.3575 301.3989 -212.0461 -151.0662 29829.0029 -51.5538 17.7997
ENERGY: 1500000 3.8689 16.8990 6.7411 0.0000 -10615.9891 1466.9620 0.0000 0.0000 1706.1817 -7415.3364 292.8341 -9121.5181 -7391.8360 300.5360 -78.5461 -6.7226 30368.7654 -4.8055 66.0959
TCL: Running FEP window  18: Lambda1 0.1499999999999997 Lambda2 0.09999999999999969 [dLambda -0.05 ]
TCL: Setting parameter firsttimestep to 0
TCL: Setting parameter alchLambda to 0.1499999999999997
Info: NONBONDED TABLE R-SQUARED SPACING: 0.0625
Info: NONBONDED TABLE SIZE: 705 POINTS
TCL: Setting parameter alchLambda2 to 0.09999999999999969
Info: NONBONDED TABLE R-SQUARED SPACING: 0.0625
Info: NONBONDED TABLE SIZE: 705 POINTS
TCL: Running for 1500000 steps
ETITLE: TS BOND ANGLE DIHED IMPRP ELECT VDW BOUNDARY MISC KINETIC TOTAL TEMP POTENTIAL TOTALAVG TEMPAVG PRESSURE GPRESSURE VOLUME PRESSAVG GPRESSAVG
ENERGY: 0 3.8689 16.8990 6.7411 0.0000 -10615.9889 1466.4337 0.0000 0.0000 1705.2514 -7416.7947 292.6745 -9122.0461 -7416.7947 292.6745 -86.4372 -16.0849 30368.7654 -86.4372 -16.0849
ENERGY: 300000 2.6279 8.9250 5.8691 0.0000 -10442.1837 1362.4852 0.0000 0.0000 1747.0142 -7315.2623 299.8423 -9062.2765 -7360.4952 297.7557 -381.4436 -319.2980 30211.0387 97.0509 171.1576
ENERGY: 600000 0.7340 10.6938 6.8188 0.0000 -10720.3559 1567.3179 0.0000 0.0000 1743.5312 -7391.2603 299.2445 -9134.7915 -7361.1471 298.6222 1235.5005 1283.5216 29729.1448 365.8388 438.8434
ENERGY: 900000 2.0981 11.3315 8.6400 0.0000 -10446.2705 1335.8934 0.0000 0.0000 1787.3527 -7300.9549 306.7656 -9088.3076 -7363.2512 300.0990 -883.6918 -822.6532 30569.1697 272.0571 349.5216
ENERGY: 1200000 1.3005 7.7078 6.8831 0.0000 -10544.4416 1476.4997 0.0000 0.0000 1713.9198 -7338.1307 294.1622 -9052.0505 -7363.3251 299.2391 387.1660 518.8785 30343.6715 267.9635 343.4784
ENERGY: 1500000 5.3853 12.2148 6.3396 0.0000 -10644.2732 1466.7665 0.0000 0.0000 1755.6805 -7397.8865 301.3297 -9153.5670 -7369.2675 300.3875 156.9366 213.6953 30153.7356 177.0401 257.1862
TCL: Running FEP window  19: Lambda1 0.09999999999999969 Lambda2 0.049999999999999684 [dLambda -0.05 ]
TCL: Setting parameter firsttimestep to 0
TCL: Setting parameter alchLambda to 0.09999999999999969
Info: NONBONDED TABLE R-SQUARED SPACING: 0.0625
Info: NONBONDED TABLE SIZE: 705 POINTS
TCL: Setting parameter alchLambda2 to 0.049999999999999684
Info: NONBONDED TABLE R-SQUARED SPACING: 0.0625
Info: NONBONDED TABLE SIZE: 705 POINTS
TCL: Running for 1500000 steps
ETITLE: TS BOND ANGLE DIHED IMPRP ELECT VDW BOUNDARY MISC KINETIC TOTAL TEMP POTENTIAL TOTALAVG TEMPAVG PRESSURE GPRESSURE VOLUME PRESSAVG GPRESSAVG
ENERGY: 0 5.3852 12.2148 6.3396 0.0000 -10644.2760 1466.8356 0.0000 0.0000 1754.7865 -7398.7143 301.1762 -9153.5008 -7398.7143 301.1762 120.3919 207.4592 30153.7356 120.3919 207.4592
ENERGY: 300000 1.6378 10.4431 6.5880 0.0000 -10496.9459 1353.9554 0.0000 0.0000 1768.6118 -7355.7098 303.5491 -9124.3216 -7383.8897 302.6873 -605.7052 -567.2008 30261.8116 -242.7244 -175.7314
ENERGY: 600000 1.3390 13.7128 6.1569 0.0000 -10529.3042 1399.5325 0.0000 0.0000 1733.4619 -7375.1010 297.5163 -9108.5629 -7377.1959 300.4659 -480.3506 -343.5608 30413.7988 -186.6378 -105.6764
ENERGY: 900000 0.9704 6.2600 6.1544 0.0000 -10564.5695 1470.0432 0.0000 0.0000 1762.2383 -7318.9032 302.4552 -9081.1415 -7375.8621 300.7778 575.5886 635.9591 29964.5038 74.2993 148.8202
ENERGY: 1200000 3.4225 12.1290 7.0565 0.0000 -10484.8133 1347.3861 0.0000 0.0000 1738.2543 -7376.5648 298.3388 -9114.8192 -7384.6023 299.9511 -779.9780 -653.2228 30292.8999 -28.5123 45.8185
ENERGY: 1500000 2.5277 13.7059 6.9510 0.0000 -10519.1711 1422.1065 0.0000 0.0000 1780.9643 -7292.9157 305.6692 -9073.8800 -7376.6484 300.7577 -8.2827 74.1119 30051.9445 -41.1875 30.8369
TCL: Running FEP window  20: Lambda1 0.049999999999999684 Lambda2 0.0    [dLambda -0.049999999999999684]
TCL: Setting parameter firsttimestep to 0
TCL: Setting parameter alchLambda to 0.049999999999999684
Info: NONBONDED TABLE R-SQUARED SPACING: 0.0625
Info: NONBONDED TABLE SIZE: 705 POINTS
TCL: Setting parameter alchLambda2 to 0.0
Info: NONBONDED TABLE R-SQUARED SPACING: 0.0625
Info: NONBONDED TABLE SIZE: 705 POINTS
TCL: Running for 1500000 steps
ETITLE: TS BOND ANGLE DIHED IMPRP ELECT VDW BOUNDARY MISC KINETIC TOTAL TEMP POTENTIAL TOTALAVG TEMPAVG PRESSURE GPRESSURE VOLUME PRESSAVG GPRESSAVG
ENERGY: 0 2.5277 13.7060 6.9510 0.0000 -10519.1720 1422.4539 0.0000 0.0000 1780.0952 -7293.4383 305.5200 -9073.5334 -7293.4383 305.5200 9.8804 73.8831 30051.9445 9.8804 73.8831
ENERGY: 300000 2.6040 15.6410 8.8148 0.0000 -10668.6510 1479.1413 0.0000 0.0000 1707.1221 -7455.3278 292.9955 -9162.4499 -7412.5933 298.4046 347.8377 416.0524 29701.5186 -62.0910 -22.8441
ENERGY: 600000 2.9411 10.0768 7.6667 0.0000 -10550.6377 1395.0575 0.0000 0.0000 1749.0529 -7385.8428 300.1922 -9134.8957 -7390.9198 299.8411 -530.7043 -543.8917 30272.9903 -131.4226 -89.3632
ENERGY: 900000 2.0625 12.3598 6.9674 0.0000 -10664.1661 1477.9928 0.0000 0.0000 1790.0375 -7374.7462 307.2264 -9164.7837 -7385.8627 300.5709 454.7352 489.0783 29682.3887 -83.5745 -45.0155
ENERGY: 1200000 3.7225 8.8286 5.4479 0.0000 -10521.8208 1348.9212 0.0000 0.0000 1728.0726 -7426.8279 296.5913 -9154.9005 -7386.7137 300.1655 -898.6351 -855.3446 30105.6937 -75.4780 -34.6754
ENERGY: 1500000 3.6607 12.0556 6.2069 0.0000 -10663.5527 1449.8945 0.0000 0.0000 1708.9104 -7482.8246 293.3025 -9191.7350 -7388.3400 299.6038 161.2999 233.5478 29734.8913 -13.4033 31.7614
TCL: Exiting due to exit command.
