Info: SIMULATION PARAMETERS:
Info: TIMESTEP               2
Info: NUMBER OF STEPS        0
Info: STEPS PER CYCLE        10
Info: PERIODIC CELL BASIS 1  30.8791 0 0
Info: PERIODIC CELL BASIS 2  0 31.5574 0
Info: PERIODIC CELL BASIS 3  0 0 31.508
Info: PERIODIC CELL CENTER   0 0 0
Info: WRAPPING WATERS AROUND PERIODIC BOUNDARIES ON OUTPUT.
Info: WRAPPING ALL CLUSTERS AROUND PERIODIC BOUNDARIES ON OUTPUT.
Info: FIRST LDB TIMESTEP     50
Info: LAST LDB TIMESTEP     -1
Info: HOM BACKGROUND SCALING 1
Info: PME BACKGROUND SCALING 1
Info: MIN ATOMS PER PATCH    40
Info: EMPTY PATCH LOAD       40 ATOMS
Info: VELOCITY FILE          mobley_9741965_equil.vel
Info: CENTER OF MASS MOVING INITIALLY? NO
Info: DIELECTRIC             1
Info: EXCLUDE                SCALED ONE-FOUR
Info: 1-4 ELECTROSTATICS SCALED BY 0.833333
Info: MODIFIED 1-4 VDW PARAMETERS WILL BE USED
Info: DCD FILENAME           mobley_9741965_prod.dcd
Info: DCD FREQUENCY          100000
Info: DCD FIRST STEP         100000
Info: DCD FILE WILL CONTAIN UNIT CELL DATA
Info: XST FILENAME           mobley_9741965_prod.xst
Info: XST FREQUENCY          100000
Info: NO VELOCITY DCD OUTPUT
Info: NO FORCE DCD OUTPUT
Info: OUTPUT FILENAME        mobley_9741965_prod
Info: BINARY OUTPUT FILES WILL BE USED
Info: RESTART FILENAME       mobley_9741965_prod.restart
Info: RESTART FREQUENCY      100000
Info: BINARY RESTART FILES WILL BE USED
Info: CUTOFF                 9
Info: PAIRLIST DISTANCE      11
Info: PAIRLIST SHRINK RATE   0.01
Info: PAIRLIST GROW RATE     0.01
Info: PAIRLIST TRIGGER       0.3
Info: PAIRLISTS PER CYCLE    2
Info: PAIRLISTS ENABLED
Info: MARGIN                 2
Info: HYDROGEN GROUP CUTOFF  2.5
Info: PATCH DIMENSION        15.5
Info: ENERGY OUTPUT STEPS    100000
Info: ENERGY EVALUATION STEPS    100000
Info: OUTPUT ENERGY PRECISION 4
Info: CROSSTERM ENERGY INCLUDED IN DIHEDRAL
Info: TIMING OUTPUT STEPS    1000000
Info: PRESSURE OUTPUT STEPS  100000
Info: ALCHEMICAL FEP ON
Info: FEP CURRENT LAMBDA VALUE     1
Info: FEP COMPARISON LAMBDA VALUE  0.95
Info: FEP INTRA-ALCHEMICAL NON-BONDED INTERACTIONS WILL BE RETAINED
Info: FEP INTRA-ALCHEMICAL BONDED INTERACTIONS WILL BE RETAINED
Info: FEP VDW SHIFTING COEFFICIENT 5
Info: FEP ELEC. ACTIVE FOR ANNIHILATED PARTICLES BETWEEN LAMBDA = 0 AND LAMBDA = 0.5
Info: FEP ELEC. ACTIVE FOR EXNIHILATED PARTICLES BETWEEN LAMBDA = 0.5 AND LAMBDA = 1
Info: FEP VDW ACTIVE FOR ANNIHILATED PARTICLES BETWEEN LAMBDA = 0 AND LAMBDA = 1
Info: FEP VDW ACTIVE FOR EXNIHILATED PARTICLES BETWEEN LAMBDA = 0 AND LAMBDA = 1
Info: FEP BOND ACTIVE FOR ANNIHILATED PARTICLES BETWEEN LAMBDA = 1 AND LAMBDA = 1
Info: FEP BOND ACTIVE FOR EXNIHILATED PARTICLES BETWEEN LAMBDA = 0 AND LAMBDA = 0
Info: LANGEVIN DYNAMICS ACTIVE
Info: LANGEVIN TEMPERATURE   300
Info: LANGEVIN USING BBK INTEGRATOR
Info: LANGEVIN DAMPING COEFFICIENT IS 1 INVERSE PS
Info: LANGEVIN DYNAMICS APPLIED TO HYDROGENS
Info: LANGEVIN PISTON PRESSURE CONTROL ACTIVE
Info:        TARGET PRESSURE IS 1.01325 BAR
Info:     OSCILLATION PERIOD IS 50 FS
Info:             DECAY TIME IS 25 FS
Info:     PISTON TEMPERATURE IS 300 K
Info:       PRESSURE CONTROL IS GROUP-BASED
Info:    INITIAL STRAIN RATE IS 0.000184576 0.000184576 0.000184576
Info:       CELL FLUCTUATION IS ISOTROPIC
Info: PARTICLE MESH EWALD (PME) ACTIVE
Info: PME TOLERANCE               1e-06
Info: PME EWALD COEFFICIENT       0.348832
Info: PME INTERPOLATION ORDER     4
Info: PME GRID DIMENSIONS         32 32 32
Info: PME MAXIMUM GRID SPACING    1
Info: PME CALCULATION WILL BE PERFORMED ON GPU
Info: FULL ELECTROSTATIC EVALUATION FREQUENCY      2
Info: USING VERLET I (r-RESPA) MTS SCHEME.
Info: C1 SPLITTING OF LONG RANGE ELECTROSTATICS
Info: PLACING ATOMS IN PATCHES BY HYDROGEN GROUPS
Info: RIGID BONDS TO HYDROGEN : ALL
Info:         ERROR TOLERANCE : 1e-08
Info:          MAX ITERATIONS : 100
Info: RIGID WATER USING SETTLE ALGORITHM
Info: RANDOM NUMBER SEED     1744057691
Info: USE HYDROGEN BONDS?    NO
Info: Using AMBER format force field!
Info: AMBER PARM FILE        mobley_9741965.prmtop
Info: COORDINATE PDB         mobley_9741965.pdb
Info: Exclusions will be read from PARM file!
Info: SCNB (VDW SCALING)     2
Info: USING ARITHMETIC MEAN TO COMBINE L-J SIGMA PARAMETERS
Info: BINARY COORDINATES     mobley_9741965_equil.coor
Info: SUMMARY OF PARAMETERS:
Info: 8 BONDS
Info: 10 ANGLES
Info:   10 HARMONIC
Info:   0 COSINE-BASED
Info: 9 DIHEDRAL
Info: 0 IMPROPER
Info: 0 CROSSTERM
Info: 0 VDW
Info: 36 VDW_PAIRS
Info: 0 NBTHOLE_PAIRS
Info: To read alchdata from file: mobley_9741965.pdb
Info: To read alchflag data from column: 5
Info: STRUCTURE SUMMARY:
Info: 2990 ATOMS
Info: 2989 BONDS
Info: 32 ANGLES
Info: 46 DIHEDRALS
Info: 0 IMPROPERS
Info: 0 CROSSTERMS
Info: 3058 EXCLUSIONS
Info: 2978 RIGID BONDS
Info: ALCH: 0 ATOMS TO DISAPPEAR IN FINAL STATE
Info: ALCH: 20 ATOMS TO APPEAR IN FINAL STATE
Info: 5992 DEGREES OF FREEDOM
Info: 1002 HYDROGEN GROUPS
Info: 4 ATOMS IN LARGEST HYDROGEN GROUP
Info: 1002 MIGRATION GROUPS
Info: 4 ATOMS IN LARGEST MIGRATION GROUP
Info: TOTAL MASS = 18016 amu
Info: TOTAL CHARGE = -4.47035e-08 e
Info: MASS DENSITY = 0.974386 g/cm^3
Info: ATOM DENSITY = 0.0973836 atoms/A^3
Info: ADDED 0 IMPLICIT EXCLUSIONS
Info: NONBONDED TABLE R-SQUARED SPACING: 0.0625
Info: NONBONDED TABLE SIZE: 705 POINTS
Info: REMOVING COM VELOCITY -0.00827967 -0.234666 0.0724269
Info: Use 3D box decompostion in PME FFT.
Info: Updated CUDA force table with 4096 elements.
Info: Updated CUDA LJ table with 8 x 8 elements.
Info: Found 21 unique exclusion lists needing 60 bytes
TCL: Running for 1500000 steps
ETITLE: TS BOND ANGLE DIHED IMPRP ELECT VDW BOUNDARY MISC KINETIC TOTAL TEMP POTENTIAL TOTALAVG TEMPAVG PRESSURE GPRESSURE VOLUME PRESSAVG GPRESSAVG
ENERGY: 0 0.8260 10.3645 5.2376 0.0000 -10775.1000 1377.6662 0.0000 0.0000 1789.1132 -7591.8925 300.5082 -9381.0057 -7591.8925 300.5082 -492.3692 -406.1698 30703.3314 -492.3692 -406.1698
ENERGY: 300000 3.6895 6.0209 5.8725 0.0000 -10819.8952 1414.5430 0.0000 0.0000 1787.1403 -7602.6289 300.1769 -9389.7693 -7576.6512 301.8611 -513.0524 -403.9305 30928.6622 -195.4998 -145.1352
ENERGY: 600000 2.7560 10.4833 6.4611 0.0000 -10927.1361 1520.4574 0.0000 0.0000 1753.1033 -7633.8750 294.4598 -9386.9783 -7570.6936 300.1630 351.8100 462.8270 31066.4630 31.7176 96.0525
ENERGY: 900000 1.7522 8.8814 2.6040 0.0000 -10733.2775 1367.5827 0.0000 0.0000 1824.2693 -7528.1878 306.4132 -9352.4571 -7571.4152 299.9529 -609.2955 -534.2870 31002.1442 -103.0371 -34.0806
ENERGY: 1200000 3.8807 6.3741 5.7506 0.0000 -10776.8653 1427.1681 0.0000 0.0000 1743.8380 -7589.8538 292.9036 -9333.6918 -7570.0165 299.3597 -130.1264 -57.2211 31044.6128 -99.9861 -31.6767
ENERGY: 1500000 3.4117 6.9093 9.7927 0.0000 -10627.4892 1287.8550 0.0000 0.0000 1762.1087 -7557.4119 295.9724 -9319.5206 -7578.8662 299.3369 -1373.8285 -1342.1159 31399.4795 -211.9186 -146.5719
TCL: Running FEP window   2: Lambda1 0.95   Lambda2 0.8999999999999999 [dLambda -0.050000000000000044]
TCL: Setting parameter firsttimestep to 0
TCL: Setting parameter alchLambda to 0.95
Info: NONBONDED TABLE R-SQUARED SPACING: 0.0625
Info: NONBONDED TABLE SIZE: 705 POINTS
TCL: Setting parameter alchLambda2 to 0.8999999999999999
Info: NONBONDED TABLE R-SQUARED SPACING: 0.0625
Info: NONBONDED TABLE SIZE: 705 POINTS
TCL: Running for 1500000 steps
ETITLE: TS BOND ANGLE DIHED IMPRP ELECT VDW BOUNDARY MISC KINETIC TOTAL TEMP POTENTIAL TOTALAVG TEMPAVG PRESSURE GPRESSURE VOLUME PRESSAVG GPRESSAVG
ENERGY: 0 3.4117 6.9093 9.7927 0.0000 -10626.3602 1288.3953 0.0000 0.0000 1761.2391 -7556.6122 295.8264 -9317.8513 -7556.6122 295.8264 -1439.8315 -1353.3180 31399.4795 -1439.8315 -1353.3180
ENERGY: 300000 6.4063 6.9812 6.2225 0.0000 -10952.3756 1501.1529 0.0000 0.0000 1775.6135 -7655.9992 298.2408 -9431.6126 -7622.6050 298.7836 -30.4128 105.7847 30985.7134 -330.8583 -239.2828
ENERGY: 600000 7.5373 10.4102 5.7449 0.0000 -10764.7509 1425.1880 0.0000 0.0000 1737.4279 -7578.4427 291.8269 -9315.8706 -7598.9872 297.9811 -368.1396 -251.0229 31310.6576 -402.7259 -332.9333
ENERGY: 900000 1.8407 11.1636 4.6699 0.0000 -10792.1595 1428.7642 0.0000 0.0000 1776.7068 -7569.0144 298.4244 -9345.7212 -7593.0494 298.7328 -429.8614 -367.8696 31608.8936 -253.7231 -187.0873
ENERGY: 1200000 5.8014 4.8626 9.4101 0.0000 -10886.0891 1450.8645 0.0000 0.0000 1768.6772 -7646.4733 297.0757 -9415.1505 -7596.2461 299.3953 77.4996 100.1772 30541.4587 -198.6895 -137.6587
ENERGY: 1500000 1.8148 13.4621 3.6457 0.0000 -10888.9267 1503.4310 0.0000 0.0000 1795.5976 -7570.9756 301.5974 -9366.5732 -7587.1158 299.6952 496.0773 545.6197 30856.2273 -27.6925 35.6154
TCL: Running FEP window   3: Lambda1 0.8999999999999999 Lambda2 0.8499999999999999 [dLambda -0.050000000000000044]
TCL: Setting parameter firsttimestep to 0
TCL: Setting parameter alchLambda to 0.8999999999999999
Info: NONBONDED TABLE R-SQUARED SPACING: 0.0625
Info: NONBONDED TABLE SIZE: 705 POINTS
TCL: Setting parameter alchLambda2 to 0.8499999999999999
Info: NONBONDED TABLE R-SQUARED SPACING: 0.0625
Info: NONBONDED TABLE SIZE: 705 POINTS
TCL: Running for 1500000 steps
ETITLE: TS BOND ANGLE DIHED IMPRP ELECT VDW BOUNDARY MISC KINETIC TOTAL TEMP POTENTIAL TOTALAVG TEMPAVG PRESSURE GPRESSURE VOLUME PRESSAVG GPRESSAVG
ENERGY: 0 1.8148 13.4621 3.6457 0.0000 -10888.1998 1503.4748 0.0000 0.0000 1794.6869 -7571.1154 301.4444 -9365.8024 -7571.1154 301.4444 443.2159 527.2016 30856.2273 443.2159 527.2016
ENERGY: 300000 1.5993 7.5783 5.5661 0.0000 -10895.9853 1466.5805 0.0000 0.0000 1769.1526 -7645.5084 297.1556 -9414.6610 -7556.2756 301.3817 179.1973 266.4431 30423.6382 148.1715 185.5417
ENERGY: 600000 3.7809 7.1677 4.0782 0.0000 -10824.4887 1453.4783 0.0000 0.0000 1807.8119 -7548.1716 303.6490 -9355.9836 -7582.7945 299.0138 12.3541 102.4670 31108.5452 113.2955 168.4767
ENERGY: 900000 2.5862 12.2278 3.4629 0.0000 -10831.1295 1479.9639 0.0000 0.0000 1852.3045 -7480.5842 311.1222 -9332.8887 -7572.8919 299.9036 533.9613 601.8093 30631.6770 117.9845 165.2908
ENERGY: 1200000 5.9109 12.4796 6.3407 0.0000 -10817.8274 1475.3105 0.0000 0.0000 1839.0240 -7478.7617 308.8915 -9317.7857 -7570.5038 300.0262 113.7244 217.0595 31152.9503 66.3704 121.6185
ENERGY: 1500000 3.3480 6.5412 5.0224 0.0000 -10935.2330 1439.8508 0.0000 0.0000 1776.7887 -7703.6820 298.4382 -9480.4707 -7575.5051 300.7369 -179.1590 -177.0408 30552.2125 -20.3036 32.3235
TCL: Running FEP window   4: Lambda1 0.8499999999999999 Lambda2 0.7999999999999998 [dLambda -0.050000000000000044]
TCL: Setting parameter firsttimestep to 0
TCL: Setting parameter alchLambda to 0.8499999999999999
Info: NONBONDED TABLE R-SQUARED SPACING: 0.0625
Info: NONBONDED TABLE SIZE: 705 POINTS
TCL: Setting parameter alchLambda2 to 0.7999999999999998
Info: NONBONDED TABLE R-SQUARED SPACING: 0.0625
Info: NONBONDED TABLE SIZE: 705 POINTS
TCL: Running for 1500000 steps
ETITLE: TS BOND ANGLE DIHED IMPRP ELECT VDW BOUNDARY MISC KINETIC TOTAL TEMP POTENTIAL TOTALAVG TEMPAVG PRESSURE GPRESSURE VOLUME PRESSAVG GPRESSAVG
ENERGY: 0 3.3480 6.5412 5.0224 0.0000 -10934.6011 1440.4999 0.0000 0.0000 1775.9006 -7703.2890 298.2890 -9479.1896 -7703.2890 298.2890 -268.0243 -184.5585 30552.2125 -268.0243 -184.5585
ENERGY: 300000 3.6825 10.0024 4.2823 0.0000 -10892.7176 1460.0005 0.0000 0.0000 1786.8161 -7627.9337 300.1224 -9414.7499 -7646.4026 296.5002 12.6979 126.5670 30611.4479 -266.4512 -205.2033
ENERGY: 600000 4.2667 9.3291 7.0634 0.0000 -10623.9333 1319.8260 0.0000 0.0000 1837.1743 -7446.2738 308.5808 -9283.4481 -7609.6907 300.8903 -1042.0268 -977.7261 31405.9173 -404.0083 -352.2937
ENERGY: 900000 2.8431 12.5145 6.4892 0.0000 -10926.0003 1539.2446 0.0000 0.0000 1794.9392 -7569.9698 301.4868 -9364.9090 -7605.6642 300.9233 830.8753 900.8574 30462.9463 -238.7811 -184.8290
ENERGY: 1200000 5.2950 16.2404 6.6954 0.0000 -10839.4509 1485.2030 0.0000 0.0000 1820.5357 -7505.4814 305.7861 -9326.0171 -7586.4578 301.3184 324.4713 355.4154 30705.7505 -192.3055 -139.3991
ENERGY: 1500000 2.7870 7.7102 5.3091 0.0000 -10762.3624 1357.9130 0.0000 0.0000 1781.4186 -7607.2245 299.2158 -9388.6431 -7596.2452 300.5501 -645.8735 -545.8480 30726.3924 -180.3902 -114.6227
TCL: Running FEP window   5: Lambda1 0.7999999999999998 Lambda2 0.7499999999999998 [dLambda -0.050000000000000044]
TCL: Setting parameter firsttimestep to 0
TCL: Setting parameter alchLambda to 0.7999999999999998
Info: NONBONDED TABLE R-SQUARED SPACING: 0.0625
Info: NONBONDED TABLE SIZE: 705 POINTS
TCL: Setting parameter alchLambda2 to 0.7499999999999998
Info: NONBONDED TABLE R-SQUARED SPACING: 0.0625
Info: NONBONDED TABLE SIZE: 705 POINTS
TCL: Running for 1500000 steps
ETITLE: TS BOND ANGLE DIHED IMPRP ELECT VDW BOUNDARY MISC KINETIC TOTAL TEMP POTENTIAL TOTALAVG TEMPAVG PRESSURE GPRESSURE VOLUME PRESSAVG GPRESSAVG
ENERGY: 0 2.7870 7.7102 5.3091 0.0000 -10761.8183 1358.6109 0.0000 0.0000 1780.5320 -7606.8690 299.0669 -9387.4010 -7606.8690 299.0669 -627.4811 -549.0240 30726.3924 -627.4811 -549.0240
ENERGY: 300000 5.5604 8.2044 5.0329 0.0000 -10884.9676 1490.7242 0.0000 0.0000 1676.7490 -7698.6968 281.6350 -9375.4458 -7622.5858 293.3499 149.1323 144.5460 30955.8563 -348.1679 -304.1757
ENERGY: 600000 4.5600 12.9957 4.5597 0.0000 -10860.1061 1482.9387 0.0000 0.0000 1791.8360 -7563.2160 300.9656 -9355.0520 -7589.2587 296.6583 278.0807 419.3576 30952.2519 -108.5791 -46.7562
ENERGY: 900000 4.1295 8.6867 5.5323 0.0000 -10701.0458 1358.9200 0.0000 0.0000 1757.2863 -7566.4909 295.1625 -9323.7773 -7587.9476 296.8613 -649.0082 -586.0264 30898.9712 -184.3677 -114.3691
ENERGY: 1200000 6.3518 7.1645 6.4594 0.0000 -10770.7524 1413.9983 0.0000 0.0000 1822.6196 -7514.1588 306.1362 -9336.7784 -7589.6634 296.8303 -208.3033 -181.0364 31003.3942 -163.2374 -93.3906
ENERGY: 1500000 3.6864 9.0471 4.6927 0.0000 -10824.0515 1432.1291 0.0000 0.0000 1865.2915 -7509.2047 313.3035 -9374.4962 -7582.5421 297.8746 -221.2806 -149.9702 30797.1332 -114.2928 -41.0125
TCL: Running FEP window   6: Lambda1 0.7499999999999998 Lambda2 0.6999999999999997 [dLambda -0.050000000000000044]
TCL: Setting parameter firsttimestep to 0
TCL: Setting parameter alchLambda to 0.7499999999999998
Info: NONBONDED TABLE R-SQUARED SPACING: 0.0625
Info: NONBONDED TABLE SIZE: 705 POINTS
TCL: Setting parameter alchLambda2 to 0.6999999999999997
Info: NONBONDED TABLE R-SQUARED SPACING: 0.0625
Info: NONBONDED TABLE SIZE: 705 POINTS
TCL: Running for 1500000 steps
ETITLE: TS BOND ANGLE DIHED IMPRP ELECT VDW BOUNDARY MISC KINETIC TOTAL TEMP POTENTIAL TOTALAVG TEMPAVG PRESSURE GPRESSURE VOLUME PRESSAVG GPRESSAVG
ENERGY: 0 3.6864 9.0471 4.6927 0.0000 -10823.2732 1432.9063 0.0000 0.0000 1864.3962 -7508.5445 313.1532 -9372.9407 -7508.5445 313.1532 -228.9867 -154.0558 30797.1332 -228.9867 -154.0558
ENERGY: 300000 3.7997 9.7676 5.8517 0.0000 -11058.3204 1624.0119 0.0000 0.0000 1783.9590 -7630.9305 299.6425 -9414.8895 -7599.6741 300.9144 1257.6029 1287.6026 30611.0477 157.2888 195.2080
ENERGY: 600000 2.5954 8.2981 9.1216 0.0000 -10843.1663 1434.2816 0.0000 0.0000 1790.2724 -7598.5971 300.7030 -9388.8695 -7598.8716 300.0163 -143.7163 -91.3137 30775.2405 32.2026 73.4748
ENERGY: 900000 2.8185 15.8180 7.5948 0.0000 -10832.3879 1449.1912 0.0000 0.0000 1779.9032 -7577.0622 298.9613 -9356.9654 -7616.1742 298.7807 -98.2363 -94.4564 31131.3153 -74.2514 -23.8473
ENERGY: 1200000 4.0353 7.3704 7.3063 0.0000 -10894.7287 1447.4620 0.0000 0.0000 1757.6598 -7670.8950 295.2252 -9428.5548 -7610.8923 299.7731 -26.5903 -8.9769 30613.8725 -69.7894 -21.8122
ENERGY: 1500000 5.0041 9.6352 7.4006 0.0000 -10831.9789 1403.4661 0.0000 0.0000 1842.0712 -7564.4016 309.4033 -9406.4729 -7602.9363 300.6158 -466.6191 -406.8920 30475.5592 -83.9518 -37.0008
TCL: Running FEP window   7: Lambda1 0.6999999999999997 Lambda2 0.6499999999999997 [dLambda -0.050000000000000044]
TCL: Setting parameter firsttimestep to 0
TCL: Setting parameter alchLambda to 0.6999999999999997
Info: NONBONDED TABLE R-SQUARED SPACING: 0.0625
Info: NONBONDED TABLE SIZE: 705 POINTS
TCL: Setting parameter alchLambda2 to 0.6499999999999997
Info: NONBONDED TABLE R-SQUARED SPACING: 0.0625
Info: NONBONDED TABLE SIZE: 705 POINTS
TCL: Running for 1500000 steps
ETITLE: TS BOND ANGLE DIHED IMPRP ELECT VDW BOUNDARY MISC KINETIC TOTAL TEMP POTENTIAL TOTALAVG TEMPAVG PRESSURE GPRESSURE VOLUME PRESSAVG GPRESSAVG
ENERGY: 0 5.0041 9.6352 7.4006 0.0000 -10831.7271 1404.2776 0.0000 0.0000 1841.1760 -7564.2337 309.2530 -9405.4096 -7564.2337 309.2530 -499.4667 -414.5435 30475.5592 -499.4667 -414.5435
ENERGY: 300000 5.3199 6.6369 5.8839 0.0000 -10828.6015 1410.5267 0.0000 0.0000 1731.7819 -7668.4523 290.8786 -9400.2342 -7594.5402 301.7425 -691.8122 -648.3787 31071.6988 -261.5765 -217.9175
ENERGY: 600000 8.1398 11.1355 5.0499 0.0000 -10779.0731 1423.5323 0.0000 0.0000 1782.9964 -7548.2191 299.4808 -9331.2156 -7562.7353 302.8316 -358.5690 -265.5512 31113.8387 -343.3845 -296.2731
ENERGY: 900000 4.4149 10.6443 4.2925 0.0000 -10888.5788 1522.8045 0.0000 0.0000 1790.6091 -7555.8136 300.7595 -9346.4227 -7577.0946 301.6604 490.7805 468.0804 30743.6100 -126.2209 -87.8462
ENERGY: 1200000 5.2173 10.0359 7.0652 0.0000 -10917.6091 1449.6485 0.0000 0.0000 1767.6037 -7678.0386 296.8954 -9445.6423 -7585.9247 300.7960 -235.2659 -232.8667 30658.4296 -165.4853 -126.2894
ENERGY: 1500000 6.8778 8.6030 6.3193 0.0000 -10728.0441 1384.4173 0.0000 0.0000 1750.9110 -7570.9158 294.0916 -9321.8268 -7584.2339 299.8566 -391.4321 -351.4870 31144.0570 -245.9795 -210.2067
TCL: Running FEP window   8: Lambda1 0.6499999999999997 Lambda2 0.5999999999999996 [dLambda -0.050000000000000044]
TCL: Setting parameter firsttimestep to 0
TCL: Setting parameter alchLambda to 0.6499999999999997
Info: NONBONDED TABLE R-SQUARED SPACING: 0.0625
Info: NONBONDED TABLE SIZE: 705 POINTS
TCL: Setting parameter alchLambda2 to 0.5999999999999996
Info: NONBONDED TABLE R-SQUARED SPACING: 0.0625
Info: NONBONDED TABLE SIZE: 705 POINTS
TCL: Running for 1500000 steps
ETITLE: TS BOND ANGLE DIHED IMPRP ELECT VDW BOUNDARY MISC KINETIC TOTAL TEMP POTENTIAL TOTALAVG TEMPAVG PRESSURE GPRESSURE VOLUME PRESSAVG GPRESSAVG
ENERGY: 0 6.8778 8.6030 6.3193 0.0000 -10727.3525 1385.1250 0.0000 0.0000 1750.0327 -7570.3947 293.9441 -9320.4274 -7570.3947 293.9441 -436.4376 -353.2169 31144.0570 -436.4376 -353.2169
ENERGY: 300000 2.1735 7.5247 5.0025 0.0000 -10832.1488 1398.0352 0.0000 0.0000 1775.6506 -7643.7622 298.2470 -9419.4128 -7602.7713 298.6385 -508.8426 -411.0750 30774.2607 -108.7699 -38.4915
ENERGY: 600000 5.2242 4.4671 5.7084 0.0000 -10770.3513 1450.0872 0.0000 0.0000 1790.3299 -7514.5345 300.7126 -9304.8644 -7599.4687 298.8409 166.4789 266.6555 30327.4004 -176.3671 -103.3674
ENERGY: 900000 3.2306 9.7769 5.0284 0.0000 -10873.0083 1453.5176 0.0000 0.0000 1783.2781 -7618.1767 299.5282 -9401.4547 -7596.2502 300.2178 38.1129 35.3874 30591.3633 -166.3870 -93.5878
ENERGY: 1200000 5.8811 10.5161 7.3432 0.0000 -10856.7378 1480.0477 0.0000 0.0000 1807.0989 -7545.8508 303.5292 -9352.9497 -7587.8706 299.8812 328.3599 361.1234 30662.5425 -162.7747 -85.8742
ENERGY: 1500000 5.8328 11.4577 5.0541 0.0000 -10961.3984 1523.7297 0.0000 0.0000 1770.5556 -7644.7685 297.3912 -9415.3241 -7590.4933 300.2674 233.9704 318.3932 30865.7212 -131.9323 -57.2198
TCL: Running FEP window   9: Lambda1 0.5999999999999996 Lambda2 0.5499999999999996 [dLambda -0.050000000000000044]
TCL: Setting parameter firsttimestep to 0
TCL: Setting parameter alchLambda to 0.5999999999999996
Info: NONBONDED TABLE R-SQUARED SPACING: 0.0625
Info: NONBONDED TABLE SIZE: 705 POINTS
TCL: Setting parameter alchLambda2 to 0.5499999999999996
Info: NONBONDED TABLE R-SQUARED SPACING: 0.0625
Info: NONBONDED TABLE SIZE: 705 POINTS
TCL: Running for 1500000 steps
ETITLE: TS BOND ANGLE DIHED IMPRP ELECT VDW BOUNDARY MISC KINETIC TOTAL TEMP POTENTIAL TOTALAVG TEMPAVG PRESSURE GPRESSURE VOLUME PRESSAVG GPRESSAVG
ENERGY: 0 5.8328 11.4576 5.0541 0.0000 -10960.9145 1524.3040 0.0000 0.0000 1769.6997 -7644.5662 297.2475 -9414.2659 -7644.5662 297.2475 214.9981 311.3618 30865.7212 214.9981 311.3618
ENERGY: 300000 5.8420 11.6049 6.5128 0.0000 -10873.7851 1467.7674 0.0000 0.0000 1763.8654 -7618.1927 296.2675 -9382.0581 -7603.9521 300.6505 28.2125 70.9615 30546.7870 35.4937 82.3804
ENERGY: 600000 6.7111 11.0260 5.1534 0.0000 -10971.8692 1482.8001 0.0000 0.0000 1697.7196 -7768.4590 285.1573 -9466.1786 -7633.0145 297.2138 -85.1733 -48.6882 30578.5102 106.2796 153.3654
ENERGY: 900000 4.6666 9.4339 6.2400 0.0000 -11047.8671 1594.3202 0.0000 0.0000 1788.4232 -7644.7833 300.3924 -9433.2065 -7650.5028 297.2625 1108.3226 1145.1972 30335.1438 135.9525 187.1776
ENERGY: 1200000 5.9468 8.7175 5.5601 0.0000 -10785.4393 1490.8106 0.0000 0.0000 1810.5039 -7463.9003 304.1011 -9274.4043 -7622.3350 298.7273 510.9891 566.9028 30791.7966 46.1571 107.6522
ENERGY: 1500000 3.5748 12.0913 8.2789 0.0000 -10761.4697 1398.2989 0.0000 0.0000 1802.5378 -7536.6880 302.7631 -9339.2258 -7615.8965 298.4086 -321.3425 -254.1547 30392.2296 -8.6133 50.8050
TCL: Running FEP window  10: Lambda1 0.5499999999999996 Lambda2 0.4999999999999996 [dLambda -0.04999999999999999]
TCL: Setting parameter firsttimestep to 0
TCL: Setting parameter alchLambda to 0.5499999999999996
Info: NONBONDED TABLE R-SQUARED SPACING: 0.0625
Info: NONBONDED TABLE SIZE: 705 POINTS
TCL: Setting parameter alchLambda2 to 0.4999999999999996
Info: NONBONDED TABLE R-SQUARED SPACING: 0.0625
Info: NONBONDED TABLE SIZE: 705 POINTS
TCL: Running for 1500000 steps
ETITLE: TS BOND ANGLE DIHED IMPRP ELECT VDW BOUNDARY MISC KINETIC TOTAL TEMP POTENTIAL TOTALAVG TEMPAVG PRESSURE GPRESSURE VOLUME PRESSAVG GPRESSAVG
ENERGY: 0 3.5748 12.0913 8.2789 0.0000 -10761.3107 1398.3817 0.0000 0.0000 1801.6870 -7537.2970 302.6202 -9338.9839 -7537.2970 302.6202 -337.3009 -263.6724 30392.2296 -337.3009 -263.6724
ENERGY: 300000 5.0785 9.2156 3.9317 0.0000 -10828.6046 1438.3488 0.0000 0.0000 1770.6586 -7601.3714 297.4085 -9372.0300 -7600.4746 297.9569 -217.7987 -163.7462 30479.4593 -249.3773 -190.9320
ENERGY: 600000 4.9071 12.6811 5.3074 0.0000 -10733.3061 1419.7351 0.0000 0.0000 1768.2782 -7522.3972 297.0087 -9290.6754 -7583.9554 297.9577 58.8146 112.6722 30536.2893 -221.5381 -154.1839
ENERGY: 900000 7.1104 8.6550 6.3020 0.0000 -10777.9659 1421.9893 0.0000 0.0000 1765.1752 -7568.7340 296.4875 -9333.9092 -7574.0140 297.8728 -341.0457 -304.8836 31107.9671 -281.5059 -212.3610
ENERGY: 1200000 3.3483 10.2553 4.2260 0.0000 -10961.0356 1528.1801 0.0000 0.0000 1837.6058 -7577.4202 308.6533 -9415.0259 -7575.1617 299.7025 961.8507 942.3037 29932.7536 -98.4915 -34.3620
ENERGY: 1500000 3.7029 10.3852 4.3222 0.0000 -10708.7726 1382.6604 0.0000 0.0000 1809.5931 -7498.1088 303.9482 -9307.7020 -7566.4550 299.8990 -327.3352 -313.5049 30638.5915 -116.4214 -59.4813
TCL: Running FEP window  11: Lambda1 0.4999999999999996 Lambda2 0.4499999999999996 [dLambda -0.04999999999999999]
TCL: Setting parameter firsttimestep to 0
TCL: Setting parameter alchLambda to 0.4999999999999996
Info: NONBONDED TABLE R-SQUARED SPACING: 0.0625
Info: NONBONDED TABLE SIZE: 705 POINTS
TCL: Setting parameter alchLambda2 to 0.4499999999999996
Info: NONBONDED TABLE R-SQUARED SPACING: 0.0625
Info: NONBONDED TABLE SIZE: 705 POINTS
TCL: Running for 1500000 steps
ETITLE: TS BOND ANGLE DIHED IMPRP ELECT VDW BOUNDARY MISC KINETIC TOTAL TEMP POTENTIAL TOTALAVG TEMPAVG PRESSURE GPRESSURE VOLUME PRESSAVG GPRESSAVG
ENERGY: 0 3.7029 10.3852 4.3222 0.0000 -10708.8248 1382.9269 0.0000 0.0000 1808.7345 -7498.7532 303.8039 -9307.4877 -7498.7532 303.8039 -401.7808 -321.8416 30638.5915 -401.7808 -321.8416
ENERGY: 300000 2.3191 9.6086 4.8674 0.0000 -10862.9599 1518.2943 0.0000 0.0000 1777.4578 -7550.4127 298.5506 -9327.8705 -7593.8510 294.8623 603.9297 703.5813 30678.2892 -188.8552 -104.0298
ENERGY: 600000 5.0239 13.7867 4.7042 0.0000 -10761.4003 1444.7155 0.0000 0.0000 1795.1480 -7498.0220 301.5219 -9293.1700 -7574.2518 297.4103 413.2786 500.7963 30405.3568 -170.6366 -75.9329
ENERGY: 900000 4.3829 8.7422 4.5111 0.0000 -10921.9193 1524.6647 0.0000 0.0000 1796.7048 -7582.9136 301.7834 -9379.6184 -7574.8504 297.8594 610.4995 628.2039 30173.3014 -56.3561 28.6137
ENERGY: 1200000 3.8702 9.1122 7.1585 0.0000 -10894.2176 1465.8434 0.0000 0.0000 1780.2803 -7627.9530 299.0246 -9408.2333 -7567.8600 298.2958 25.3220 51.4088 30716.1571 -113.1520 -32.5730
ENERGY: 1500000 4.7781 11.2464 7.1623 0.0000 -10671.0337 1426.5027 0.0000 0.0000 1813.3931 -7407.9510 304.5864 -9221.3441 -7559.7123 298.9219 682.6979 776.2342 30348.9044 -101.9248 -22.5838
TCL: Running FEP window  12: Lambda1 0.4499999999999996 Lambda2 0.39999999999999963 [dLambda -0.04999999999999999]
TCL: Setting parameter firsttimestep to 0
TCL: Setting parameter alchLambda to 0.4499999999999996
Info: NONBONDED TABLE R-SQUARED SPACING: 0.0625
Info: NONBONDED TABLE SIZE: 705 POINTS
TCL: Setting parameter alchLambda2 to 0.39999999999999963
Info: NONBONDED TABLE R-SQUARED SPACING: 0.0625
Info: NONBONDED TABLE SIZE: 705 POINTS
TCL: Running for 1500000 steps
ETITLE: TS BOND ANGLE DIHED IMPRP ELECT VDW BOUNDARY MISC KINETIC TOTAL TEMP POTENTIAL TOTALAVG TEMPAVG PRESSURE GPRESSURE VOLUME PRESSAVG GPRESSAVG
ENERGY: 0 4.7781 11.2464 7.1623 0.0000 -10671.0336 1426.8301 0.0000 0.0000 1812.5166 -7408.5000 304.4392 -9221.0166 -7408.5000 304.4392 676.4060 768.4337 30348.9044 676.4060 768.4337
ENERGY: 300000 6.5471 5.9034 6.6684 0.0000 -10761.8435 1427.1482 0.0000 0.0000 1808.1307 -7507.4456 303.7025 -9315.5763 -7520.2365 304.7669 -199.7008 -121.5589 30738.9978 151.2085 235.4473
ENERGY: 600000 4.2607 10.9004 7.0846 0.0000 -10770.7360 1442.0454 0.0000 0.0000 1769.2105 -7537.2343 297.1653 -9306.4449 -7519.0730 303.8600 -163.8254 -130.8312 30970.3201 40.9334 122.8445
ENERGY: 900000 2.1059 4.7380 5.6571 0.0000 -10914.7395 1480.4603 0.0000 0.0000 1782.2442 -7639.5340 299.3545 -9421.7782 -7527.1834 302.7232 200.2260 273.2242 30553.9089 140.4556 220.2955
ENERGY: 1200000 3.1179 10.6181 4.1571 0.0000 -10887.3537 1510.1796 0.0000 0.0000 1743.1971 -7616.0840 292.7960 -9359.2811 -7543.1996 300.9896 679.5237 726.8035 30497.8775 163.1940 241.5826
ENERGY: 1500000 2.4895 6.9003 4.3168 0.0000 -10762.9631 1420.6523 0.0000 0.0000 1775.3245 -7553.2798 298.1922 -9328.6043 -7550.1875 300.6363 -385.5985 -381.6054 30925.8077 77.7202 149.0387
TCL: Running FEP window  13: Lambda1 0.39999999999999963 Lambda2 0.34999999999999964 [dLambda -0.04999999999999999]
TCL: Setting parameter firsttimestep to 0
TCL: Setting parameter alchLambda to 0.39999999999999963
Info: NONBONDED TABLE R-SQUARED SPACING: 0.0625
Info: NONBONDED TABLE SIZE: 705 POINTS
TCL: Setting parameter alchLambda2 to 0.34999999999999964
Info: NONBONDED TABLE R-SQUARED SPACING: 0.0625
Info: NONBONDED TABLE SIZE: 705 POINTS
TCL: Running for 1500000 steps
ETITLE: TS BOND ANGLE DIHED IMPRP ELECT VDW BOUNDARY MISC KINETIC TOTAL TEMP POTENTIAL TOTALAVG TEMPAVG PRESSURE GPRESSURE VOLUME PRESSAVG GPRESSAVG
ENERGY: 0 2.4895 6.9003 4.3168 0.0000 -10762.9631 1420.8333 0.0000 0.0000 1774.5043 -7553.9190 298.0545 -9328.4232 -7553.9190 298.0545 -477.4704 -390.4094 30925.8077 -477.4704 -390.4094
ENERGY: 300000 3.4110 15.5853 6.6317 0.0000 -10807.5436 1470.3075 0.0000 0.0000 1755.3777 -7556.2304 294.8419 -9311.6081 -7537.1379 298.8158 197.5853 260.4354 30558.6437 -194.8055 -117.7031
ENERGY: 600000 3.0028 8.2256 6.1332 0.0000 -10918.7690 1473.4435 0.0000 0.0000 1874.7208 -7553.2430 314.8873 -9427.9638 -7534.6422 301.9887 120.1260 167.9710 30685.3271 -154.1933 -103.0885
ENERGY: 900000 4.8324 7.1432 4.9779 0.0000 -10690.6327 1426.9801 0.0000 0.0000 1805.8777 -7440.8213 303.3241 -9246.6990 -7540.5089 302.2033 -1.8351 35.8759 30703.9977 -81.5685 -31.2923
ENERGY: 1200000 3.7333 9.4314 5.7826 0.0000 -10823.2374 1474.7322 0.0000 0.0000 1771.7201 -7557.8378 297.5868 -9329.5579 -7549.5956 300.8174 289.2592 283.4518 30433.4631 -59.4043 -10.7891
ENERGY: 1500000 4.1580 12.9659 5.6688 0.0000 -10927.0563 1480.3498 0.0000 0.0000 1725.1352 -7698.7786 289.7622 -9423.9138 -7560.6402 300.4268 -133.0892 -27.0553 30700.5978 1.0546 52.2387
TCL: Running FEP window  14: Lambda1 0.34999999999999964 Lambda2 0.29999999999999966 [dLambda -0.04999999999999999]
TCL: Setting parameter firsttimestep to 0
TCL: Setting parameter alchLambda to 0.34999999999999964
Info: NONBONDED TABLE R-SQUARED SPACING: 0.0625
Info: NONBONDED TABLE SIZE: 705 POINTS
TCL: Setting parameter alchLambda2 to 0.29999999999999966
Info: NONBONDED TABLE R-SQUARED SPACING: 0.0625
Info: NONBONDED TABLE SIZE: 705 POINTS
TCL: Running for 1500000 steps
ETITLE: TS BOND ANGLE DIHED IMPRP ELECT VDW BOUNDARY MISC KINETIC TOTAL TEMP POTENTIAL TOTALAVG TEMPAVG PRESSURE GPRESSURE VOLUME PRESSAVG GPRESSAVG
ENERGY: 0 4.1580 12.9659 5.6688 0.0000 -10927.0565 1480.6842 0.0000 0.0000 1724.2398 -7699.3398 289.6118 -9423.5796 -7699.3398 289.6118 -114.6444 -32.1161 30700.5978 -114.6444 -32.1161
ENERGY: 300000 2.4309 8.2954 5.8443 0.0000 -10953.8677 1532.2267 0.0000 0.0000 1735.7563 -7669.3141 291.5462 -9405.0704 -7601.3899 298.4103 500.8037 572.5657 30420.9781 3.0987 100.6431
ENERGY: 600000 2.5433 8.2313 5.9369 0.0000 -11032.1802 1542.3941 0.0000 0.0000 1764.2522 -7708.8224 296.3325 -9473.0746 -7607.0014 298.8205 486.8469 558.1282 30236.0360 -139.9783 -51.7681
ENERGY: 900000 2.5025 10.8635 5.5793 0.0000 -10704.6012 1378.5816 0.0000 0.0000 1811.7740 -7495.3002 304.3145 -9307.0742 -7589.4707 299.3264 -517.4357 -465.9245 30954.6523 -185.4229 -105.2988
ENERGY: 1200000 4.1229 13.9630 5.7103 0.0000 -10973.0933 1517.7714 0.0000 0.0000 1864.3455 -7567.1802 313.1446 -9431.5257 -7591.5696 299.9571 291.1339 356.4720 30658.6020 -176.6023 -104.4991
ENERGY: 1500000 2.5847 10.3233 4.2086 0.0000 -10853.6990 1470.2467 0.0000 0.0000 1789.9093 -7576.4262 300.6420 -9366.3356 -7582.9684 300.3654 400.9201 461.2618 30223.2241 -182.4890 -114.2741
TCL: Running FEP window  15: Lambda1 0.29999999999999966 Lambda2 0.24999999999999967 [dLambda -0.04999999999999999]
TCL: Setting parameter firsttimestep to 0
TCL: Setting parameter alchLambda to 0.29999999999999966
Info: NONBONDED TABLE R-SQUARED SPACING: 0.0625
Info: NONBONDED TABLE SIZE: 705 POINTS
TCL: Setting parameter alchLambda2 to 0.24999999999999967
Info: NONBONDED TABLE R-SQUARED SPACING: 0.0625
Info: NONBONDED TABLE SIZE: 705 POINTS
TCL: Running for 1500000 steps
ETITLE: TS BOND ANGLE DIHED IMPRP ELECT VDW BOUNDARY MISC KINETIC TOTAL TEMP POTENTIAL TOTALAVG TEMPAVG PRESSURE GPRESSURE VOLUME PRESSAVG GPRESSAVG
ENERGY: 0 2.5848 10.3233 4.2086 0.0000 -10853.6979 1471.0915 0.0000 0.0000 1789.0578 -7576.4320 300.4989 -9365.4897 -7576.4320 300.4989 382.0621 459.4531 30223.2241 382.0621 459.4531
ENERGY: 300000 3.0916 8.3626 5.4370 0.0000 -10854.8794 1469.9873 0.0000 0.0000 1755.5272 -7612.4737 294.8670 -9368.0009 -7613.4643 298.1874 197.4038 251.9979 30280.3148 325.3118 384.7918
ENERGY: 600000 2.4828 8.5286 5.2194 0.0000 -10708.2258 1337.7191 0.0000 0.0000 1813.4354 -7540.8405 304.5935 -9354.2758 -7592.9197 300.3296 -1111.7554 -956.3829 30823.9154 -126.1510 -46.5672
ENERGY: 900000 2.4834 11.3050 4.4268 0.0000 -10690.9315 1390.6037 0.0000 0.0000 1791.3985 -7490.7140 300.8921 -9282.1126 -7587.8013 299.0449 -439.2307 -363.9173 31054.7835 -134.5005 -60.8345
ENERGY: 1200000 2.4134 12.2717 4.8674 0.0000 -10713.3114 1413.0835 0.0000 0.0000 1715.6647 -7565.0108 288.1715 -9280.6755 -7580.5014 299.4876 -309.4762 -240.9558 30869.9234 -130.9326 -58.6647
ENERGY: 1500000 3.5585 5.8887 4.7356 0.0000 -10777.7831 1394.9081 0.0000 0.0000 1749.4846 -7619.2076 293.8520 -9368.6922 -7578.2698 299.7560 -732.1332 -591.9880 30997.7425 -152.3418 -81.2793
TCL: Running FEP window  16: Lambda1 0.24999999999999967 Lambda2 0.19999999999999968 [dLambda -0.04999999999999999]
TCL: Setting parameter firsttimestep to 0
TCL: Setting parameter alchLambda to 0.24999999999999967
Info: NONBONDED TABLE R-SQUARED SPACING: 0.0625
Info: NONBONDED TABLE SIZE: 705 POINTS
TCL: Setting parameter alchLambda2 to 0.19999999999999968
Info: NONBONDED TABLE R-SQUARED SPACING: 0.0625
Info: NONBONDED TABLE SIZE: 705 POINTS
TCL: Running for 1500000 steps
ETITLE: TS BOND ANGLE DIHED IMPRP ELECT VDW BOUNDARY MISC KINETIC TOTAL TEMP POTENTIAL TOTALAVG TEMPAVG PRESSURE GPRESSURE VOLUME PRESSAVG GPRESSAVG
ENERGY: 0 3.5585 5.8887 4.7356 0.0000 -10777.7829 1395.6143 0.0000 0.0000 1748.5789 -7619.4069 293.6999 -9367.9858 -7619.4069 293.6999 -673.7892 -593.6744 30997.7425 -673.7892 -593.6744
ENERGY: 300000 2.6598 6.9246 3.6079 0.0000 -10699.3815 1415.1138 0.0000 0.0000 1796.8915 -7474.1839 301.8147 -9271.0755 -7546.2424 299.7780 -299.3079 -257.4884 31400.0122 -339.6770 -274.4273
ENERGY: 600000 6.3817 8.5939 3.2179 0.0000 -10950.7334 1517.0758 0.0000 0.0000 1759.1394 -7656.3247 295.4737 -9415.4641 -7577.0724 298.5386 -27.5361 23.4154 30597.7319 -279.0596 -209.7441
ENERGY: 900000 2.9555 6.2411 5.0381 0.0000 -10971.8940 1502.8552 0.0000 0.0000 1808.2567 -7646.5473 303.7237 -9454.8041 -7582.7709 299.0829 187.1400 278.3195 30506.2384 -190.7076 -120.3993
ENERGY: 1200000 3.6780 8.5056 3.8791 0.0000 -10821.8246 1435.5539 0.0000 0.0000 1832.4539 -7537.7541 307.7880 -9370.2079 -7582.3517 300.3447 -190.7396 -206.6626 30834.6445 -94.0823 -30.0721
ENERGY: 1500000 4.5825 14.2755 4.9141 0.0000 -10958.7212 1544.0912 0.0000 0.0000 1830.1612 -7560.6967 307.4029 -9390.8580 -7585.8009 300.6446 718.8044 736.5092 30371.4321 -64.7478 -8.1328
TCL: Running FEP window  17: Lambda1 0.19999999999999968 Lambda2 0.1499999999999997 [dLambda -0.04999999999999999]
TCL: Setting parameter firsttimestep to 0
TCL: Setting parameter alchLambda to 0.19999999999999968
Info: NONBONDED TABLE R-SQUARED SPACING: 0.0625
Info: NONBONDED TABLE SIZE: 705 POINTS
TCL: Setting parameter alchLambda2 to 0.1499999999999997
Info: NONBONDED TABLE R-SQUARED SPACING: 0.0625
Info: NONBONDED TABLE SIZE: 705 POINTS
TCL: Running for 1500000 steps
ETITLE: TS BOND ANGLE DIHED IMPRP ELECT VDW BOUNDARY MISC KINETIC TOTAL TEMP POTENTIAL TOTALAVG TEMPAVG PRESSURE GPRESSURE VOLUME PRESSAVG GPRESSAVG
ENERGY: 0 4.5825 14.2755 4.9141 0.0000 -10958.7200 1544.4685 0.0000 0.0000 1829.2464 -7561.2330 307.2492 -9390.4794 -7561.2330 307.2492 650.6439 735.3131 30371.4321 650.6439 735.3131
ENERGY: 300000 3.3419 8.6582 6.4908 0.0000 -10669.7514 1356.6107 0.0000 0.0000 1827.3580 -7467.2918 306.9320 -9294.6498 -7503.0782 305.8551 -575.5299 -460.5268 30375.5645 -84.3347 -22.2762
ENERGY: 600000 2.8581 11.5186 5.0571 0.0000 -10813.1222 1448.5574 0.0000 0.0000 1708.9387 -7636.1924 287.0417 -9345.1311 -7535.0668 303.4395 -186.4114 -116.7313 30931.9617 29.0365 90.0364
ENERGY: 900000 6.3182 10.4279 5.3510 0.0000 -10916.2798 1535.9201 0.0000 0.0000 1801.8528 -7556.4098 302.6481 -9358.2625 -7547.7076 303.4060 457.4610 520.0227 30626.0842 51.5352 114.8007
ENERGY: 1200000 3.9396 10.1155 3.7155 0.0000 -10803.5736 1398.7037 0.0000 0.0000 1738.1210 -7648.9784 291.9434 -9387.0994 -7567.4876 300.9779 -472.7761 -386.0974 30513.9880 -47.8815 17.3544
ENERGY: 1500000 5.4005 13.4729 4.4613 0.0000 -10824.5736 1413.0051 0.0000 0.0000 1775.4380 -7612.7959 298.2113 -9388.2339 -7573.8001 300.5007 -652.8482 -590.3534 30922.3829 -7.3763 55.2131
TCL: Running FEP window  18: Lambda1 0.1499999999999997 Lambda2 0.09999999999999969 [dLambda -0.05 ]
TCL: Setting parameter firsttimestep to 0
TCL: Setting parameter alchLambda to 0.1499999999999997
Info: NONBONDED TABLE R-SQUARED SPACING: 0.0625
Info: NONBONDED TABLE SIZE: 705 POINTS
TCL: Setting parameter alchLambda2 to 0.09999999999999969
Info: NONBONDED TABLE R-SQUARED SPACING: 0.0625
Info: NONBONDED TABLE SIZE: 705 POINTS
TCL: Running for 1500000 steps
ETITLE: TS BOND ANGLE DIHED IMPRP ELECT VDW BOUNDARY MISC KINETIC TOTAL TEMP POTENTIAL TOTALAVG TEMPAVG PRESSURE GPRESSURE VOLUME PRESSAVG GPRESSAVG
ENERGY: 0 5.4005 13.4729 4.4613 0.0000 -10824.5747 1412.5341 0.0000 0.0000 1774.5569 -7614.1491 298.0633 -9388.7059 -7614.1491 298.0633 -675.3572 -595.9691 30922.3829 -675.3572 -595.9691
ENERGY: 300000 2.4519 9.8003 5.3002 0.0000 -10560.9338 1309.1034 0.0000 0.0000 1790.2084 -7444.0695 300.6922 -9234.2779 -7539.5392 300.7150 -901.2036 -812.9370 30842.6457 -335.6089 -264.3689
ENERGY: 600000 4.7080 16.0084 5.5848 0.0000 -10693.5653 1418.5022 0.0000 0.0000 1747.8614 -7500.9005 293.5794 -9248.7618 -7526.9850 300.6185 -352.4921 -284.6001 31119.8971 -315.2617 -240.9943
ENERGY: 900000 4.3518 8.3641 6.0600 0.0000 -10824.4223 1442.9949 0.0000 0.0000 1766.1049 -7596.5466 296.6437 -9362.6515 -7528.6889 300.4505 -341.9493 -304.0337 30884.3492 -220.4403 -154.9963
ENERGY: 1200000 6.4520 8.8999 4.7752 0.0000 -10867.0677 1457.9546 0.0000 0.0000 1789.9776 -7599.0083 300.6534 -9388.9859 -7543.1510 300.1470 -150.1555 -95.0084 30655.0409 -129.5858 -58.1973
ENERGY: 1500000 4.2471 7.2919 5.8707 0.0000 -10750.0620 1427.4172 0.0000 0.0000 1839.5501 -7465.6849 308.9799 -9305.2350 -7545.5865 300.0307 -29.1495 94.0172 30352.1407 -119.2021 -46.9250
TCL: Running FEP window  19: Lambda1 0.09999999999999969 Lambda2 0.049999999999999684 [dLambda -0.05 ]
TCL: Setting parameter firsttimestep to 0
TCL: Setting parameter alchLambda to 0.09999999999999969
Info: NONBONDED TABLE R-SQUARED SPACING: 0.0625
Info: NONBONDED TABLE SIZE: 705 POINTS
TCL: Setting parameter alchLambda2 to 0.049999999999999684
Info: NONBONDED TABLE R-SQUARED SPACING: 0.0625
Info: NONBONDED TABLE SIZE: 705 POINTS
TCL: Running for 1500000 steps
ETITLE: TS BOND ANGLE DIHED IMPRP ELECT VDW BOUNDARY MISC KINETIC TOTAL TEMP POTENTIAL TOTALAVG TEMPAVG PRESSURE GPRESSURE VOLUME PRESSAVG GPRESSAVG
ENERGY: 0 4.2471 7.2919 5.8707 0.0000 -10750.0621 1426.6813 0.0000 0.0000 1838.6856 -7467.2854 308.8347 -9305.9710 -7467.2854 308.8347 -0.9657 85.5358 30352.1407 -0.9657 85.5358
ENERGY: 300000 4.4141 10.2588 5.7104 0.0000 -10692.6068 1406.4192 0.0000 0.0000 1709.5509 -7556.2535 287.1446 -9265.8043 -7544.0138 297.5096 -426.2276 -410.2645 30782.6023 -163.8184 -113.4643
ENERGY: 600000 7.8010 6.3586 5.8367 0.0000 -10834.5980 1471.6124 0.0000 0.0000 1802.0073 -7540.9820 302.6740 -9342.9893 -7529.6157 301.3262 212.0600 239.5719 30347.6464 -124.8162 -89.3385
ENERGY: 900000 3.3242 9.5822 7.5204 0.0000 -10912.6014 1513.2945 0.0000 0.0000 1824.2715 -7554.6086 306.4136 -9378.8801 -7551.2035 301.4173 213.8684 276.3534 30741.7199 -87.2015 -40.3090
ENERGY: 1200000 3.8217 5.8374 7.4677 0.0000 -10900.4023 1557.9649 0.0000 0.0000 1776.0764 -7549.2342 298.3185 -9325.3106 -7550.9797 301.2907 693.9331 757.3494 30885.2815 -37.2611 14.4930
ENERGY: 1500000 5.8281 10.3736 7.6424 0.0000 -10969.6519 1547.7945 0.0000 0.0000 1732.2221 -7665.7912 290.9525 -9398.0133 -7557.6179 300.9575 812.5556 819.5048 30346.1749 14.1393 66.3990
TCL: Running FEP window  20: Lambda1 0.049999999999999684 Lambda2 0.0    [dLambda -0.049999999999999684]
TCL: Setting parameter firsttimestep to 0
TCL: Setting parameter alchLambda to 0.049999999999999684
Info: NONBONDED TABLE R-SQUARED SPACING: 0.0625
Info: NONBONDED TABLE SIZE: 705 POINTS
TCL: Setting parameter alchLambda2 to 0.0
Info: NONBONDED TABLE R-SQUARED SPACING: 0.0625
Info: NONBONDED TABLE SIZE: 705 POINTS
TCL: Running for 1500000 steps
ETITLE: TS BOND ANGLE DIHED IMPRP ELECT VDW BOUNDARY MISC KINETIC TOTAL TEMP POTENTIAL TOTALAVG TEMPAVG PRESSURE GPRESSURE VOLUME PRESSAVG GPRESSAVG
ENERGY: 0 5.8281 10.3736 7.6424 0.0000 -10969.6515 1547.6439 0.0000 0.0000 1731.3158 -7666.8478 290.8003 -9398.1636 -7666.8478 290.8003 733.1624 815.6818 30346.1749 733.1624 815.6818
ENERGY: 300000 5.1676 7.9183 5.7705 0.0000 -10868.9082 1486.5821 0.0000 0.0000 1813.8417 -7549.6281 304.6618 -9363.4697 -7610.1471 298.6304 264.7782 344.1375 30306.0416 153.6699 216.8166
ENERGY: 600000 2.5868 9.6283 5.0147 0.0000 -10680.3164 1341.6046 0.0000 0.0000 1794.0824 -7527.3997 301.3429 -9321.4821 -7585.3689 300.4876 -872.0224 -774.6352 30868.2958 -282.1116 -215.8822
ENERGY: 900000 2.4875 12.1893 4.4166 0.0000 -10835.8113 1454.1997 0.0000 0.0000 1746.8141 -7615.7040 293.4035 -9362.5181 -7592.3842 298.5933 -95.6574 8.9247 30698.0339 -207.0218 -132.9991
ENERGY: 1200000 2.9348 10.3107 4.3499 0.0000 -10892.1107 1503.2561 0.0000 0.0000 1832.1791 -7539.0800 307.7418 -9371.2592 -7589.3073 299.5534 569.8855 675.3362 29939.4600 -138.5857 -62.5440
ENERGY: 1500000 3.7242 11.7442 6.3328 0.0000 -10808.1327 1415.0928 0.0000 0.0000 1778.6828 -7592.5560 298.7563 -9371.2387 -7593.7755 298.9916 -553.2745 -488.9652 30818.7899 -223.3843 -147.0895
TCL: Exiting due to exit command.
