Info: SIMULATION PARAMETERS:
Info: TIMESTEP               2
Info: NUMBER OF STEPS        0
Info: STEPS PER CYCLE        10
Info: PERIODIC CELL BASIS 1  30.7653 0 0
Info: PERIODIC CELL BASIS 2  0 31.6851 0
Info: PERIODIC CELL BASIS 3  0 0 30.7371
Info: PERIODIC CELL CENTER   0 0 0
Info: WRAPPING WATERS AROUND PERIODIC BOUNDARIES ON OUTPUT.
Info: WRAPPING ALL CLUSTERS AROUND PERIODIC BOUNDARIES ON OUTPUT.
Info: FIRST LDB TIMESTEP     50
Info: LAST LDB TIMESTEP     -1
Info: HOM BACKGROUND SCALING 1
Info: PME BACKGROUND SCALING 1
Info: MIN ATOMS PER PATCH    40
Info: EMPTY PATCH LOAD       40 ATOMS
Info: VELOCITY FILE          mobley_8614858_equil.vel
Info: CENTER OF MASS MOVING INITIALLY? NO
Info: DIELECTRIC             1
Info: EXCLUDE                SCALED ONE-FOUR
Info: 1-4 ELECTROSTATICS SCALED BY 0.833333
Info: MODIFIED 1-4 VDW PARAMETERS WILL BE USED
Info: DCD FILENAME           mobley_8614858_prod.dcd
Info: DCD FREQUENCY          100000
Info: DCD FIRST STEP         100000
Info: DCD FILE WILL CONTAIN UNIT CELL DATA
Info: XST FILENAME           mobley_8614858_prod.xst
Info: XST FREQUENCY          100000
Info: NO VELOCITY DCD OUTPUT
Info: NO FORCE DCD OUTPUT
Info: OUTPUT FILENAME        mobley_8614858_prod
Info: BINARY OUTPUT FILES WILL BE USED
Info: RESTART FILENAME       mobley_8614858_prod.restart
Info: RESTART FREQUENCY      100000
Info: BINARY RESTART FILES WILL BE USED
Info: CUTOFF                 9
Info: PAIRLIST DISTANCE      11
Info: PAIRLIST SHRINK RATE   0.01
Info: PAIRLIST GROW RATE     0.01
Info: PAIRLIST TRIGGER       0.3
Info: PAIRLISTS PER CYCLE    2
Info: PAIRLISTS ENABLED
Info: MARGIN                 2
Info: HYDROGEN GROUP CUTOFF  2.5
Info: PATCH DIMENSION        15.5
Info: ENERGY OUTPUT STEPS    100000
Info: ENERGY EVALUATION STEPS    100000
Info: OUTPUT ENERGY PRECISION 4
Info: CROSSTERM ENERGY INCLUDED IN DIHEDRAL
Info: TIMING OUTPUT STEPS    1000000
Info: PRESSURE OUTPUT STEPS  100000
Info: ALCHEMICAL FEP ON
Info: FEP CURRENT LAMBDA VALUE     1
Info: FEP COMPARISON LAMBDA VALUE  0.95
Info: FEP INTRA-ALCHEMICAL NON-BONDED INTERACTIONS WILL BE RETAINED
Info: FEP INTRA-ALCHEMICAL BONDED INTERACTIONS WILL BE RETAINED
Info: FEP VDW SHIFTING COEFFICIENT 5
Info: FEP ELEC. ACTIVE FOR ANNIHILATED PARTICLES BETWEEN LAMBDA = 0 AND LAMBDA = 0.5
Info: FEP ELEC. ACTIVE FOR EXNIHILATED PARTICLES BETWEEN LAMBDA = 0.5 AND LAMBDA = 1
Info: FEP VDW ACTIVE FOR ANNIHILATED PARTICLES BETWEEN LAMBDA = 0 AND LAMBDA = 1
Info: FEP VDW ACTIVE FOR EXNIHILATED PARTICLES BETWEEN LAMBDA = 0 AND LAMBDA = 1
Info: FEP BOND ACTIVE FOR ANNIHILATED PARTICLES BETWEEN LAMBDA = 1 AND LAMBDA = 1
Info: FEP BOND ACTIVE FOR EXNIHILATED PARTICLES BETWEEN LAMBDA = 0 AND LAMBDA = 0
Info: LANGEVIN DYNAMICS ACTIVE
Info: LANGEVIN TEMPERATURE   300
Info: LANGEVIN USING BBK INTEGRATOR
Info: LANGEVIN DAMPING COEFFICIENT IS 1 INVERSE PS
Info: LANGEVIN DYNAMICS APPLIED TO HYDROGENS
Info: LANGEVIN PISTON PRESSURE CONTROL ACTIVE
Info:        TARGET PRESSURE IS 1.01325 BAR
Info:     OSCILLATION PERIOD IS 50 FS
Info:             DECAY TIME IS 25 FS
Info:     PISTON TEMPERATURE IS 300 K
Info:       PRESSURE CONTROL IS GROUP-BASED
Info:    INITIAL STRAIN RATE IS -0.000217002 -0.000217002 -0.000217002
Info:       CELL FLUCTUATION IS ISOTROPIC
Info: PARTICLE MESH EWALD (PME) ACTIVE
Info: PME TOLERANCE               1e-06
Info: PME EWALD COEFFICIENT       0.348832
Info: PME INTERPOLATION ORDER     4
Info: PME GRID DIMENSIONS         32 32 32
Info: PME MAXIMUM GRID SPACING    1
Info: PME CALCULATION WILL BE PERFORMED ON GPU
Info: FULL ELECTROSTATIC EVALUATION FREQUENCY      2
Info: USING VERLET I (r-RESPA) MTS SCHEME.
Info: C1 SPLITTING OF LONG RANGE ELECTROSTATICS
Info: PLACING ATOMS IN PATCHES BY HYDROGEN GROUPS
Info: RIGID BONDS TO HYDROGEN : ALL
Info:         ERROR TOLERANCE : 1e-08
Info:          MAX ITERATIONS : 100
Info: RIGID WATER USING SETTLE ALGORITHM
Info: RANDOM NUMBER SEED     1743981959
Info: USE HYDROGEN BONDS?    NO
Info: Using AMBER format force field!
Info: AMBER PARM FILE        mobley_8614858.prmtop
Info: COORDINATE PDB         mobley_8614858.pdb
Info: Exclusions will be read from PARM file!
Info: SCNB (VDW SCALING)     2
Info: USING ARITHMETIC MEAN TO COMBINE L-J SIGMA PARAMETERS
Info: BINARY COORDINATES     mobley_8614858_equil.coor
Info: SUMMARY OF PARAMETERS:
Info: 4 BONDS
Info: 3 ANGLES
Info:   3 HARMONIC
Info:   0 COSINE-BASED
Info: 5 DIHEDRAL
Info: 0 IMPROPER
Info: 0 CROSSTERM
Info: 0 VDW
Info: 10 VDW_PAIRS
Info: 0 NBTHOLE_PAIRS
Info: To read alchdata from file: mobley_8614858.pdb
Info: To read alchflag data from column: 5
Info: STRUCTURE SUMMARY:
Info: 2906 ATOMS
Info: 2905 BONDS
Info: 42 ANGLES
Info: 62 DIHEDRALS
Info: 0 IMPROPERS
Info: 0 CROSSTERMS
Info: 3001 EXCLUSIONS
Info: 2899 RIGID BONDS
Info: ALCH: 0 ATOMS TO DISAPPEAR IN FINAL STATE
Info: ALCH: 23 ATOMS TO APPEAR IN FINAL STATE
Info: 5819 DEGREES OF FREEDOM
Info: 968 HYDROGEN GROUPS
Info: 4 ATOMS IN LARGEST HYDROGEN GROUP
Info: 968 MIGRATION GROUPS
Info: 4 ATOMS IN LARGEST MIGRATION GROUP
Info: TOTAL MASS = 17413.6 amu
Info: TOTAL CHARGE = 0.00060001 e
Info: MASS DENSITY = 0.965093 g/cm^3
Info: ATOM DENSITY = 0.0969879 atoms/A^3
Info: ADDED 0 IMPLICIT EXCLUSIONS
Info: NONBONDED TABLE R-SQUARED SPACING: 0.0625
Info: NONBONDED TABLE SIZE: 705 POINTS
Info: REMOVING COM VELOCITY 0.0524781 -0.0305226 -0.0766099
Info: Use 3D box decompostion in PME FFT.
Info: Updated CUDA force table with 4096 elements.
Info: Updated CUDA LJ table with 4 x 4 elements.
Info: Found 26 unique exclusion lists needing 80 bytes
TCL: Running for 1500000 steps
ETITLE: TS BOND ANGLE DIHED IMPRP ELECT VDW BOUNDARY MISC KINETIC TOTAL TEMP POTENTIAL TOTALAVG TEMPAVG PRESSURE GPRESSURE VOLUME PRESSAVG GPRESSAVG
ENERGY: 0 4.7176 11.4623 2.7929 0.0000 -10441.6217 1336.5295 0.0000 0.0000 1785.4452 -7300.6741 308.8080 -9086.1193 -7300.6741 308.8080 -671.1178 -584.2317 29962.5064 -671.1178 -584.2317
ENERGY: 300000 1.2254 9.0489 3.8624 0.0000 -10392.1816 1378.0029 0.0000 0.0000 1770.2677 -7229.7743 306.1829 -9000.0420 -7343.2596 300.9180 -263.2344 -239.1304 30372.3004 -139.1488 -87.1018
ENERGY: 600000 0.7465 9.8046 3.3064 0.0000 -10603.0310 1515.7100 0.0000 0.0000 1764.5772 -7308.8864 305.1987 -9073.4635 -7337.9534 301.7382 982.5360 1038.3119 29824.0955 111.2471 181.7493
ENERGY: 900000 1.4544 5.3392 2.6456 0.0000 -10429.3632 1336.3436 0.0000 0.0000 1719.6421 -7363.9383 297.4268 -9083.5805 -7335.6155 300.9229 -519.2670 -446.5127 29997.3829 130.4046 197.1263
ENERGY: 1200000 0.9966 5.1586 2.8122 0.0000 -10478.9079 1409.6488 0.0000 0.0000 1745.1065 -7315.1852 301.8311 -9060.2917 -7328.5907 300.3937 278.6647 306.1693 29695.7276 93.2609 154.3922
ENERGY: 1500000 2.2330 13.1631 5.0707 0.0000 -10414.3826 1368.6385 0.0000 0.0000 1673.6801 -7351.5973 289.4773 -9025.2774 -7321.1565 300.2264 -262.9533 -173.8870 29946.5571 87.6728 156.6623
TCL: Running FEP window   2: Lambda1 0.95   Lambda2 0.8999999999999999 [dLambda -0.050000000000000044]
TCL: Setting parameter firsttimestep to 0
TCL: Setting parameter alchLambda to 0.95
Info: NONBONDED TABLE R-SQUARED SPACING: 0.0625
Info: NONBONDED TABLE SIZE: 705 POINTS
TCL: Setting parameter alchLambda2 to 0.8999999999999999
Info: NONBONDED TABLE R-SQUARED SPACING: 0.0625
Info: NONBONDED TABLE SIZE: 705 POINTS
TCL: Running for 1500000 steps
ETITLE: TS BOND ANGLE DIHED IMPRP ELECT VDW BOUNDARY MISC KINETIC TOTAL TEMP POTENTIAL TOTALAVG TEMPAVG PRESSURE GPRESSURE VOLUME PRESSAVG GPRESSAVG
ENERGY: 0 2.2330 13.1631 5.0707 0.0000 -10414.3627 1368.1622 0.0000 0.0000 1672.8140 -7352.9198 289.3275 -9025.7338 -7352.9198 289.3275 -295.9989 -196.9643 29946.5571 -295.9989 -196.9643
ENERGY: 300000 0.7126 10.9976 4.0388 0.0000 -10448.3664 1364.0055 0.0000 0.0000 1693.5770 -7375.0349 292.9186 -9068.6119 -7389.7135 292.8995 -498.1231 -402.5688 30144.3897 52.4313 110.8425
ENERGY: 600000 0.7877 12.5263 6.1700 0.0000 -10550.4800 1430.9947 0.0000 0.0000 1791.6033 -7308.3980 309.8731 -9100.0013 -7383.0067 295.6900 260.6819 339.2473 29828.1759 225.3017 296.5058
ENERGY: 900000 2.2220 13.5419 2.3097 0.0000 -10475.6053 1378.2339 0.0000 0.0000 1708.6111 -7370.6866 295.5189 -9079.2977 -7358.9576 297.2418 -312.2543 -219.6649 30051.3032 87.9192 167.2108
ENERGY: 1200000 2.0637 10.8824 5.4218 0.0000 -10243.4601 1192.7018 0.0000 0.0000 1783.2223 -7249.1681 308.4235 -9032.3904 -7348.7241 298.4537 -1816.7046 -1801.9853 30683.0559 -91.5502 -16.3797
ENERGY: 1500000 1.8455 12.5609 2.6362 0.0000 -10520.7005 1378.1295 0.0000 0.0000 1735.5050 -7390.0234 300.1704 -9125.5285 -7345.6657 298.1527 -439.1558 -376.8316 30038.4986 -99.8348 -28.3213
TCL: Running FEP window   3: Lambda1 0.8999999999999999 Lambda2 0.8499999999999999 [dLambda -0.050000000000000044]
TCL: Setting parameter firsttimestep to 0
TCL: Setting parameter alchLambda to 0.8999999999999999
Info: NONBONDED TABLE R-SQUARED SPACING: 0.0625
Info: NONBONDED TABLE SIZE: 705 POINTS
TCL: Setting parameter alchLambda2 to 0.8499999999999999
Info: NONBONDED TABLE R-SQUARED SPACING: 0.0625
Info: NONBONDED TABLE SIZE: 705 POINTS
TCL: Running for 1500000 steps
ETITLE: TS BOND ANGLE DIHED IMPRP ELECT VDW BOUNDARY MISC KINETIC TOTAL TEMP POTENTIAL TOTALAVG TEMPAVG PRESSURE GPRESSURE VOLUME PRESSAVG GPRESSAVG
ENERGY: 0 1.8455 12.5609 2.6362 0.0000 -10520.6831 1378.4362 0.0000 0.0000 1734.6656 -7390.5387 300.0252 -9125.2043 -7390.5387 300.0252 -471.3069 -383.5932 30038.4986 -471.3069 -383.5932
ENERGY: 300000 3.1444 9.3087 2.5326 0.0000 -10542.9481 1438.4317 0.0000 0.0000 1747.3804 -7342.1503 302.2244 -9089.5307 -7377.6512 302.8112 125.7916 219.7115 29918.1927 -146.5369 -44.1027
ENERGY: 600000 2.2672 13.1120 3.3171 0.0000 -10565.5071 1452.3725 0.0000 0.0000 1736.7878 -7357.6506 300.3923 -9094.4384 -7356.8591 302.5384 393.3836 491.5683 29384.5372 -157.8784 -64.4715
ENERGY: 900000 0.5352 10.9706 4.3098 0.0000 -10585.5881 1484.7855 0.0000 0.0000 1744.6396 -7340.3474 301.7503 -9084.9870 -7344.9216 301.7260 702.9621 763.7827 29558.6708 -154.2753 -73.2047
ENERGY: 1200000 1.5010 10.4695 4.1626 0.0000 -10573.3945 1449.4314 0.0000 0.0000 1727.3174 -7380.5126 298.7543 -9107.8300 -7346.0383 301.4307 339.9718 387.1039 29738.4812 -124.5368 -51.5914
ENERGY: 1500000 2.5246 11.9446 2.5645 0.0000 -10591.2594 1471.3213 0.0000 0.0000 1715.9721 -7386.9323 296.7920 -9102.9044 -7333.9693 302.2489 585.0691 632.7319 29549.3604 -98.0860 -30.1729
TCL: Running FEP window   4: Lambda1 0.8499999999999999 Lambda2 0.7999999999999998 [dLambda -0.050000000000000044]
TCL: Setting parameter firsttimestep to 0
TCL: Setting parameter alchLambda to 0.8499999999999999
Info: NONBONDED TABLE R-SQUARED SPACING: 0.0625
Info: NONBONDED TABLE SIZE: 705 POINTS
TCL: Setting parameter alchLambda2 to 0.7999999999999998
Info: NONBONDED TABLE R-SQUARED SPACING: 0.0625
Info: NONBONDED TABLE SIZE: 705 POINTS
TCL: Running for 1500000 steps
ETITLE: TS BOND ANGLE DIHED IMPRP ELECT VDW BOUNDARY MISC KINETIC TOTAL TEMP POTENTIAL TOTALAVG TEMPAVG PRESSURE GPRESSURE VOLUME PRESSAVG GPRESSAVG
ENERGY: 0 2.5246 11.9446 2.5645 0.0000 -10591.2594 1471.3641 0.0000 0.0000 1715.1179 -7387.7437 296.6443 -9102.8615 -7387.7437 296.6443 511.9543 624.5222 29549.3604 511.9543 624.5222
ENERGY: 300000 3.5281 14.8779 4.3160 0.0000 -10434.7873 1392.7320 0.0000 0.0000 1688.2741 -7331.0593 292.0014 -9019.3334 -7375.7318 293.9517 94.0685 215.9877 29802.6208 -148.8696 -30.2543
ENERGY: 600000 2.8549 14.1249 3.9926 0.0000 -10443.4973 1381.9372 0.0000 0.0000 1701.2546 -7339.3331 294.2465 -9040.5877 -7352.8740 296.4660 -314.7547 -243.1888 29830.8609 -191.7655 -94.3940
ENERGY: 900000 2.7905 8.1796 4.1146 0.0000 -10405.8752 1383.1428 0.0000 0.0000 1734.7864 -7272.8613 300.0461 -9007.6477 -7338.0157 298.2490 90.2023 116.1078 29859.6863 -189.0975 -99.0010
ENERGY: 1200000 0.9045 11.9155 2.4675 0.0000 -10497.7947 1382.2401 0.0000 0.0000 1772.0631 -7328.2039 306.4935 -9100.2670 -7346.3313 298.3338 -427.8414 -362.7491 30071.5630 -166.2377 -87.7922
ENERGY: 1500000 3.4973 8.2296 2.8491 0.0000 -10366.7385 1364.3207 0.0000 0.0000 1778.7268 -7209.1148 307.6460 -8987.8417 -7331.0108 299.7978 -41.7179 42.3089 29856.5557 -143.0381 -74.0279
TCL: Running FEP window   5: Lambda1 0.7999999999999998 Lambda2 0.7499999999999998 [dLambda -0.050000000000000044]
TCL: Setting parameter firsttimestep to 0
TCL: Setting parameter alchLambda to 0.7999999999999998
Info: NONBONDED TABLE R-SQUARED SPACING: 0.0625
Info: NONBONDED TABLE SIZE: 705 POINTS
TCL: Setting parameter alchLambda2 to 0.7499999999999998
Info: NONBONDED TABLE R-SQUARED SPACING: 0.0625
Info: NONBONDED TABLE SIZE: 705 POINTS
TCL: Running for 1500000 steps
ETITLE: TS BOND ANGLE DIHED IMPRP ELECT VDW BOUNDARY MISC KINETIC TOTAL TEMP POTENTIAL TOTALAVG TEMPAVG PRESSURE GPRESSURE VOLUME PRESSAVG GPRESSAVG
ENERGY: 0 3.4973 8.2296 2.8491 0.0000 -10366.7564 1363.5814 0.0000 0.0000 1777.8585 -7210.7405 307.4958 -8988.5990 -7210.7405 307.4958 -78.9414 14.6065 29856.5557 -78.9414 14.6065
ENERGY: 300000 3.8893 13.5741 4.0228 0.0000 -10355.8767 1385.4957 0.0000 0.0000 1688.4873 -7260.4075 292.0383 -8948.8948 -7282.3251 301.2002 -182.0620 -114.8345 30219.1125 -182.4148 -122.1414
ENERGY: 600000 0.6218 9.9231 3.5137 0.0000 -10491.9028 1387.5416 0.0000 0.0000 1719.9967 -7370.3059 297.4881 -9090.3025 -7319.0106 298.8414 -75.5164 16.8483 29709.3025 -106.1822 -34.9548
ENERGY: 900000 1.9881 13.1000 4.1120 0.0000 -10481.8100 1399.4477 0.0000 0.0000 1797.7803 -7265.3819 310.9415 -9063.1622 -7317.3713 299.7482 -249.1042 -192.3871 30282.1172 -89.0522 -20.0711
ENERGY: 1200000 0.7941 9.3052 4.4548 0.0000 -10598.5343 1496.8825 0.0000 0.0000 1758.5117 -7328.5860 304.1496 -9087.0977 -7330.9817 300.4840 1067.5000 1113.5498 29314.8717 57.9052 117.7202
ENERGY: 1500000 3.4802 11.9975 2.7929 0.0000 -10419.0409 1363.5406 0.0000 0.0000 1752.3100 -7284.9198 303.0770 -9037.2298 -7321.2896 301.0021 -202.4651 -168.7562 29883.0133 57.9782 116.8451
TCL: Running FEP window   6: Lambda1 0.7499999999999998 Lambda2 0.6999999999999997 [dLambda -0.050000000000000044]
TCL: Setting parameter firsttimestep to 0
TCL: Setting parameter alchLambda to 0.7499999999999998
Info: NONBONDED TABLE R-SQUARED SPACING: 0.0625
Info: NONBONDED TABLE SIZE: 705 POINTS
TCL: Setting parameter alchLambda2 to 0.6999999999999997
Info: NONBONDED TABLE R-SQUARED SPACING: 0.0625
Info: NONBONDED TABLE SIZE: 705 POINTS
TCL: Running for 1500000 steps
ETITLE: TS BOND ANGLE DIHED IMPRP ELECT VDW BOUNDARY MISC KINETIC TOTAL TEMP POTENTIAL TOTALAVG TEMPAVG PRESSURE GPRESSURE VOLUME PRESSAVG GPRESSAVG
ENERGY: 0 3.4802 11.9975 2.7929 0.0000 -10418.9866 1363.6236 0.0000 0.0000 1751.4711 -7285.6212 302.9319 -9037.0924 -7285.6212 302.9319 -265.9244 -182.2287 29883.0133 -265.9244 -182.2287
ENERGY: 300000 1.1516 10.9695 6.3714 0.0000 -10498.8287 1345.0784 0.0000 0.0000 1718.2060 -7417.0518 297.1784 -9135.2578 -7359.7280 297.7488 -491.7457 -409.4770 29569.3913 -396.5897 -327.0841
ENERGY: 600000 2.3018 11.5011 3.3069 0.0000 -10381.2583 1322.8443 0.0000 0.0000 1706.9266 -7334.3775 295.2275 -9041.3040 -7353.0541 298.3581 -717.1159 -679.5752 30305.7315 -369.4353 -313.4756
ENERGY: 900000 1.3499 8.3055 2.6919 0.0000 -10692.7010 1535.9175 0.0000 0.0000 1738.5666 -7405.8695 300.7000 -9144.4362 -7342.2384 299.0923 835.5568 924.3270 29617.4553 -300.3815 -242.5577
ENERGY: 1200000 2.1030 10.1818 3.3911 0.0000 -10492.8008 1470.0471 0.0000 0.0000 1796.1349 -7210.9430 310.6569 -9007.0779 -7325.4366 300.6256 911.9291 995.6553 29453.1992 -211.9804 -152.3961
ENERGY: 1500000 2.5905 7.6552 2.4998 0.0000 -10482.9008 1375.6498 0.0000 0.0000 1795.9559 -7298.5497 310.6259 -9094.5056 -7325.8524 301.0922 -383.3669 -360.3942 30264.0738 -174.1024 -119.6413
TCL: Running FEP window   7: Lambda1 0.6999999999999997 Lambda2 0.6499999999999997 [dLambda -0.050000000000000044]
TCL: Setting parameter firsttimestep to 0
TCL: Setting parameter alchLambda to 0.6999999999999997
Info: NONBONDED TABLE R-SQUARED SPACING: 0.0625
Info: NONBONDED TABLE SIZE: 705 POINTS
TCL: Setting parameter alchLambda2 to 0.6499999999999997
Info: NONBONDED TABLE R-SQUARED SPACING: 0.0625
Info: NONBONDED TABLE SIZE: 705 POINTS
TCL: Running for 1500000 steps
ETITLE: TS BOND ANGLE DIHED IMPRP ELECT VDW BOUNDARY MISC KINETIC TOTAL TEMP POTENTIAL TOTALAVG TEMPAVG PRESSURE GPRESSURE VOLUME PRESSAVG GPRESSAVG
ENERGY: 0 2.5905 7.6552 2.4998 0.0000 -10482.9389 1375.6503 0.0000 0.0000 1795.0732 -7299.4699 310.4733 -9094.5431 -7299.4699 310.4733 -447.2121 -373.2288 30264.0738 -447.2121 -373.2288
ENERGY: 300000 1.6308 8.2622 3.8146 0.0000 -10498.8822 1422.4256 0.0000 0.0000 1684.4169 -7378.3321 291.3343 -9062.7490 -7329.3087 301.4835 -145.9600 -60.5142 30315.7453 -137.6737 -77.2383
ENERGY: 600000 4.0036 8.1107 4.1416 0.0000 -10592.3440 1457.2531 0.0000 0.0000 1704.2256 -7414.6094 294.7604 -9118.8350 -7332.4195 300.3511 541.5907 596.0543 28939.6116 -155.5307 -100.4177
ENERGY: 900000 1.4489 9.6689 3.2456 0.0000 -10505.4233 1458.3843 0.0000 0.0000 1750.8529 -7281.8227 302.8250 -9032.6756 -7311.4440 299.4261 623.8171 654.2003 29727.4952 -36.2669 24.4968
ENERGY: 1200000 1.6598 14.2117 3.8816 0.0000 -10479.5581 1347.3157 0.0000 0.0000 1750.4571 -7362.0322 302.7565 -9112.4893 -7322.8473 299.1541 -357.4146 -271.9642 29559.2955 -167.6256 -101.4302
ENERGY: 1500000 2.2208 10.0390 6.3955 0.0000 -10352.8321 1332.4598 0.0000 0.0000 1708.5367 -7293.1803 295.5060 -9001.7170 -7327.1090 298.7028 -830.5728 -731.0187 30353.8106 -220.2396 -148.4249
TCL: Running FEP window   8: Lambda1 0.6499999999999997 Lambda2 0.5999999999999996 [dLambda -0.050000000000000044]
TCL: Setting parameter firsttimestep to 0
TCL: Setting parameter alchLambda to 0.6499999999999997
Info: NONBONDED TABLE R-SQUARED SPACING: 0.0625
Info: NONBONDED TABLE SIZE: 705 POINTS
TCL: Setting parameter alchLambda2 to 0.5999999999999996
Info: NONBONDED TABLE R-SQUARED SPACING: 0.0625
Info: NONBONDED TABLE SIZE: 705 POINTS
TCL: Running for 1500000 steps
ETITLE: TS BOND ANGLE DIHED IMPRP ELECT VDW BOUNDARY MISC KINETIC TOTAL TEMP POTENTIAL TOTALAVG TEMPAVG PRESSURE GPRESSURE VOLUME PRESSAVG GPRESSAVG
ENERGY: 0 2.2208 10.0390 6.3955 0.0000 -10352.8315 1330.9540 0.0000 0.0000 1707.7257 -7295.4966 295.3658 -9003.2223 -7295.4966 295.3658 -843.9227 -758.0847 30353.8106 -843.9227 -758.0847
ENERGY: 300000 1.0441 10.4817 6.1499 0.0000 -10659.4818 1485.5465 0.0000 0.0000 1727.7282 -7428.5313 298.8254 -9156.2596 -7351.6902 296.0530 308.3266 465.4851 29679.4178 -128.3431 -54.3705
ENERGY: 600000 1.2300 16.1598 4.1130 0.0000 -10643.6941 1476.0677 0.0000 0.0000 1727.4450 -7418.6786 298.7764 -9146.1236 -7355.4459 297.8512 685.0814 631.6175 29390.1815 35.9813 87.4770
ENERGY: 900000 0.7302 9.6321 3.5639 0.0000 -10514.1676 1462.5388 0.0000 0.0000 1664.1896 -7373.5130 287.8358 -9037.7027 -7338.2397 297.3704 306.5152 296.5899 30241.2373 103.7001 145.8220
ENERGY: 1200000 0.8582 9.1089 6.6811 0.0000 -10459.4267 1420.7032 0.0000 0.0000 1754.3219 -7267.7535 303.4250 -9022.0754 -7335.0952 297.5505 -99.3950 -40.5769 30570.2368 -9.5292 39.9304
ENERGY: 1500000 1.8713 8.6424 2.7927 0.0000 -10457.5924 1364.5386 0.0000 0.0000 1744.0057 -7335.7417 301.6407 -9079.7474 -7331.4171 298.7335 -390.2361 -346.5011 29759.4416 -114.2056 -62.1818
TCL: Running FEP window   9: Lambda1 0.5999999999999996 Lambda2 0.5499999999999996 [dLambda -0.050000000000000044]
TCL: Setting parameter firsttimestep to 0
TCL: Setting parameter alchLambda to 0.5999999999999996
Info: NONBONDED TABLE R-SQUARED SPACING: 0.0625
Info: NONBONDED TABLE SIZE: 705 POINTS
TCL: Setting parameter alchLambda2 to 0.5499999999999996
Info: NONBONDED TABLE R-SQUARED SPACING: 0.0625
Info: NONBONDED TABLE SIZE: 705 POINTS
TCL: Running for 1500000 steps
ETITLE: TS BOND ANGLE DIHED IMPRP ELECT VDW BOUNDARY MISC KINETIC TOTAL TEMP POTENTIAL TOTALAVG TEMPAVG PRESSURE GPRESSURE VOLUME PRESSAVG GPRESSAVG
ENERGY: 0 1.8713 8.6424 2.7927 0.0000 -10457.5386 1364.8477 0.0000 0.0000 1743.1250 -7336.2595 301.4884 -9079.3845 -7336.2595 301.4884 -436.4141 -352.8583 29759.4416 -436.4141 -352.8583
ENERGY: 300000 1.2835 9.2114 4.7178 0.0000 -10524.7157 1505.5920 0.0000 0.0000 1777.4935 -7226.4176 307.4327 -9003.9111 -7306.7551 300.0479 988.7429 985.0574 30043.0428 -177.4562 -134.6237
ENERGY: 600000 1.5499 12.1652 3.5337 0.0000 -10638.0409 1455.0993 0.0000 0.0000 1753.3622 -7412.3305 303.2590 -9165.6927 -7342.7764 300.0310 237.9582 202.1250 29696.3620 -127.6585 -84.3936
ENERGY: 900000 0.5099 8.2621 3.0902 0.0000 -10361.8345 1371.8642 0.0000 0.0000 1730.5450 -7247.5631 299.3126 -8978.1082 -7343.1244 299.4255 69.1548 184.2081 29794.8771 -116.5517 -48.6177
ENERGY: 1200000 2.4128 8.5795 2.7857 0.0000 -10471.1563 1413.4422 0.0000 0.0000 1755.9229 -7288.0132 303.7019 -9043.9362 -7329.2212 299.9807 -337.6129 -258.8327 30485.3936 -157.8580 -88.9280
ENERGY: 1500000 1.9977 8.5210 3.7017 0.0000 -10528.3688 1443.7518 0.0000 0.0000 1673.8990 -7396.4976 289.5151 -9070.3965 -7338.5883 299.1997 -36.8429 11.8741 30367.6703 -91.7770 -26.4714
TCL: Running FEP window  10: Lambda1 0.5499999999999996 Lambda2 0.4999999999999996 [dLambda -0.04999999999999999]
TCL: Setting parameter firsttimestep to 0
TCL: Setting parameter alchLambda to 0.5499999999999996
Info: NONBONDED TABLE R-SQUARED SPACING: 0.0625
Info: NONBONDED TABLE SIZE: 705 POINTS
TCL: Setting parameter alchLambda2 to 0.4999999999999996
Info: NONBONDED TABLE R-SQUARED SPACING: 0.0625
Info: NONBONDED TABLE SIZE: 705 POINTS
TCL: Running for 1500000 steps
ETITLE: TS BOND ANGLE DIHED IMPRP ELECT VDW BOUNDARY MISC KINETIC TOTAL TEMP POTENTIAL TOTALAVG TEMPAVG PRESSURE GPRESSURE VOLUME PRESSAVG GPRESSAVG
ENERGY: 0 1.9977 8.5210 3.7017 0.0000 -10528.3728 1444.1415 0.0000 0.0000 1673.0293 -7396.9816 289.3647 -9070.0109 -7396.9816 289.3647 -75.3930 4.7598 30367.6703 -75.3930 4.7598
ENERGY: 300000 1.7004 9.0915 4.7385 0.0000 -10533.2239 1467.9362 0.0000 0.0000 1757.6340 -7292.1233 303.9978 -9049.7573 -7351.2331 296.3799 767.9503 780.5178 29622.9571 0.5535 32.9455
ENERGY: 600000 1.0676 9.7676 2.6998 0.0000 -10579.1266 1479.9941 0.0000 0.0000 1777.6924 -7307.9052 307.4671 -9085.5976 -7364.6127 298.4417 556.2407 609.2530 29625.7983 239.2397 278.7718
ENERGY: 900000 5.6336 11.1405 2.6929 0.0000 -10556.6771 1452.0666 0.0000 0.0000 1732.0917 -7353.0517 299.5801 -9085.1434 -7359.9384 297.8469 230.2803 256.2384 29989.5285 192.3643 232.6793
ENERGY: 1200000 1.1814 13.0186 3.9330 0.0000 -10326.1002 1301.5402 0.0000 0.0000 1742.5728 -7263.8543 301.3929 -9006.4272 -7357.7599 297.6293 -902.2066 -797.6267 30211.4615 21.1387 61.5643
ENERGY: 1500000 2.2921 10.3234 3.6686 0.0000 -10436.2556 1356.6533 0.0000 0.0000 1740.4226 -7322.8955 301.0210 -9063.3181 -7336.8455 299.6868 -309.0252 -174.0911 29442.8205 27.8331 78.8419
TCL: Running FEP window  11: Lambda1 0.4999999999999996 Lambda2 0.4499999999999996 [dLambda -0.04999999999999999]
TCL: Setting parameter firsttimestep to 0
TCL: Setting parameter alchLambda to 0.4999999999999996
Info: NONBONDED TABLE R-SQUARED SPACING: 0.0625
Info: NONBONDED TABLE SIZE: 705 POINTS
TCL: Setting parameter alchLambda2 to 0.4499999999999996
Info: NONBONDED TABLE R-SQUARED SPACING: 0.0625
Info: NONBONDED TABLE SIZE: 705 POINTS
TCL: Running for 1500000 steps
ETITLE: TS BOND ANGLE DIHED IMPRP ELECT VDW BOUNDARY MISC KINETIC TOTAL TEMP POTENTIAL TOTALAVG TEMPAVG PRESSURE GPRESSURE VOLUME PRESSAVG GPRESSAVG
ENERGY: 0 2.2921 10.3234 3.6686 0.0000 -10436.2991 1356.2872 0.0000 0.0000 1739.5727 -7324.1550 300.8740 -9063.7277 -7324.1550 300.8740 -276.3222 -188.2416 29442.8205 -276.3222 -188.2416
ENERGY: 300000 3.8763 10.6509 4.5955 0.0000 -10489.5553 1303.6245 0.0000 0.0000 1768.1789 -7398.6292 305.8216 -9166.8081 -7325.4072 303.9033 -1100.9165 -1035.9223 29967.3131 -328.1442 -231.2650
ENERGY: 600000 1.3823 9.0630 4.1391 0.0000 -10413.0148 1382.4298 0.0000 0.0000 1714.0225 -7301.9781 296.4548 -9016.0005 -7297.3736 303.5717 -400.2317 -351.5195 30186.8439 -348.2185 -255.7936
ENERGY: 900000 0.6779 12.7576 3.6695 0.0000 -10496.2549 1456.7567 0.0000 0.0000 1777.4280 -7244.9652 307.4214 -9022.3932 -7297.2569 303.0462 405.1784 502.6401 29943.8956 -228.5535 -142.9262
ENERGY: 1200000 2.6892 6.9809 4.1061 0.0000 -10555.2435 1447.3857 0.0000 0.0000 1736.9751 -7357.1064 300.4247 -9094.0815 -7304.9576 301.5292 354.2821 390.7308 29519.2049 -316.2212 -235.6690
ENERGY: 1500000 0.3576 8.9630 3.0567 0.0000 -10472.3391 1385.7169 0.0000 0.0000 1736.5945 -7337.6504 300.3589 -9074.2449 -7309.4299 301.2359 -201.9754 -130.1736 29734.4960 -283.5812 -202.5614
TCL: Running FEP window  12: Lambda1 0.4499999999999996 Lambda2 0.39999999999999963 [dLambda -0.04999999999999999]
TCL: Setting parameter firsttimestep to 0
TCL: Setting parameter alchLambda to 0.4499999999999996
Info: NONBONDED TABLE R-SQUARED SPACING: 0.0625
Info: NONBONDED TABLE SIZE: 705 POINTS
TCL: Setting parameter alchLambda2 to 0.39999999999999963
Info: NONBONDED TABLE R-SQUARED SPACING: 0.0625
Info: NONBONDED TABLE SIZE: 705 POINTS
TCL: Running for 1500000 steps
ETITLE: TS BOND ANGLE DIHED IMPRP ELECT VDW BOUNDARY MISC KINETIC TOTAL TEMP POTENTIAL TOTALAVG TEMPAVG PRESSURE GPRESSURE VOLUME PRESSAVG GPRESSAVG
ENERGY: 0 0.3576 8.9630 3.0567 0.0000 -10472.3399 1385.6257 0.0000 0.0000 1735.7353 -7338.6017 300.2102 -9074.3370 -7338.6017 300.2102 -241.2739 -139.0332 29734.4960 -241.2739 -139.0332
ENERGY: 300000 0.8715 13.8576 3.5196 0.0000 -10394.4342 1418.7262 0.0000 0.0000 1722.0843 -7235.3750 297.8492 -8957.4594 -7296.0888 306.0631 150.1379 215.0900 30050.4476 -105.9059 -19.7587
ENERGY: 600000 1.5666 9.4912 3.8963 0.0000 -10635.8682 1493.1235 0.0000 0.0000 1737.7934 -7389.9970 300.5662 -9127.7904 -7337.6452 302.2245 561.5364 591.6443 29489.5438 -13.2872 53.9708
ENERGY: 900000 3.7565 9.4907 3.2932 0.0000 -10534.6175 1422.2413 0.0000 0.0000 1760.3857 -7335.4503 304.4737 -9095.8360 -7330.4013 301.4360 123.5824 149.0048 29613.4123 42.8060 103.6183
ENERGY: 1200000 1.8711 6.8782 2.9509 0.0000 -10547.3710 1427.6916 0.0000 0.0000 1696.9879 -7410.9913 293.5086 -9107.9792 -7335.0003 300.1822 43.5821 113.1069 29803.9935 -75.8956 -16.6700
ENERGY: 1500000 3.7476 9.9131 3.6810 0.0000 -10434.0127 1387.6596 0.0000 0.0000 1813.1659 -7215.8456 313.6025 -9029.0115 -7333.5241 300.8558 -192.6320 -147.6581 29797.6106 -87.5420 -32.3751
TCL: Running FEP window  13: Lambda1 0.39999999999999963 Lambda2 0.34999999999999964 [dLambda -0.04999999999999999]
TCL: Setting parameter firsttimestep to 0
TCL: Setting parameter alchLambda to 0.39999999999999963
Info: NONBONDED TABLE R-SQUARED SPACING: 0.0625
Info: NONBONDED TABLE SIZE: 705 POINTS
TCL: Setting parameter alchLambda2 to 0.34999999999999964
Info: NONBONDED TABLE R-SQUARED SPACING: 0.0625
Info: NONBONDED TABLE SIZE: 705 POINTS
TCL: Running for 1500000 steps
ETITLE: TS BOND ANGLE DIHED IMPRP ELECT VDW BOUNDARY MISC KINETIC TOTAL TEMP POTENTIAL TOTALAVG TEMPAVG PRESSURE GPRESSURE VOLUME PRESSAVG GPRESSAVG
ENERGY: 0 3.7476 9.9131 3.6810 0.0000 -10434.0130 1387.0124 0.0000 0.0000 1812.2950 -7217.3638 313.4519 -9029.6589 -7217.3638 313.4519 -227.6844 -161.8110 29797.6106 -227.6844 -161.8110
ENERGY: 300000 1.6053 11.3493 3.5143 0.0000 -10668.8576 1504.9636 0.0000 0.0000 1701.9940 -7445.4311 294.3744 -9147.4251 -7299.2002 301.6613 549.4586 565.9130 29596.2257 128.1096 205.2678
ENERGY: 600000 3.5781 12.9016 2.6994 0.0000 -10588.0442 1425.9265 0.0000 0.0000 1709.2001 -7433.7385 295.6208 -9142.9386 -7353.5780 297.6470 -48.9485 43.2604 29239.7396 38.7770 121.1874
ENERGY: 900000 1.8105 11.9867 5.1110 0.0000 -10453.2925 1372.2098 0.0000 0.0000 1725.0336 -7337.1409 298.3593 -9062.1745 -7349.4562 298.3899 -321.5760 -272.1377 29834.2774 88.8336 160.3916
ENERGY: 1200000 1.7569 11.3101 2.5091 0.0000 -10483.4962 1405.6194 0.0000 0.0000 1761.2564 -7301.0443 304.6243 -9062.3006 -7337.3120 300.0532 -159.5212 -87.5675 30040.9181 64.4891 133.2750
ENERGY: 1500000 2.7149 7.5812 3.8031 0.0000 -10441.2849 1350.5618 0.0000 0.0000 1763.7409 -7312.8830 305.0541 -9076.6239 -7334.5744 300.2271 -610.4850 -475.6027 29795.0288 -9.4929 65.1602
TCL: Running FEP window  14: Lambda1 0.34999999999999964 Lambda2 0.29999999999999966 [dLambda -0.04999999999999999]
TCL: Setting parameter firsttimestep to 0
TCL: Setting parameter alchLambda to 0.34999999999999964
Info: NONBONDED TABLE R-SQUARED SPACING: 0.0625
Info: NONBONDED TABLE SIZE: 705 POINTS
TCL: Setting parameter alchLambda2 to 0.29999999999999966
Info: NONBONDED TABLE R-SQUARED SPACING: 0.0625
Info: NONBONDED TABLE SIZE: 705 POINTS
TCL: Running for 1500000 steps
ETITLE: TS BOND ANGLE DIHED IMPRP ELECT VDW BOUNDARY MISC KINETIC TOTAL TEMP POTENTIAL TOTALAVG TEMPAVG PRESSURE GPRESSURE VOLUME PRESSAVG GPRESSAVG
ENERGY: 0 2.7149 7.5812 3.8031 0.0000 -10441.2860 1350.6303 0.0000 0.0000 1762.8859 -7313.6705 304.9062 -9076.5565 -7313.6705 304.9062 -548.3150 -480.5124 29795.0288 -548.3150 -480.5124
ENERGY: 300000 4.0092 7.9346 6.5188 0.0000 -10644.6462 1529.9632 0.0000 0.0000 1746.2293 -7349.9911 302.0253 -9096.2204 -7360.1216 299.0463 1084.2411 1154.9806 29445.0861 207.5470 267.0295
ENERGY: 600000 1.2283 12.3471 3.1790 0.0000 -10497.2704 1440.7738 0.0000 0.0000 1764.4380 -7275.3040 305.1746 -9039.7420 -7345.8125 298.7649 274.5141 278.3845 29896.3117 233.7831 287.6904
ENERGY: 900000 0.7351 7.5328 3.9854 0.0000 -10382.3940 1357.9255 0.0000 0.0000 1739.1509 -7273.0643 300.8010 -9012.2152 -7326.6969 299.0110 -381.3016 -354.9979 30097.8960 226.1313 282.0456
ENERGY: 1200000 1.4068 7.2917 3.6985 0.0000 -10492.8541 1401.4019 0.0000 0.0000 1685.2660 -7393.7892 291.4812 -9079.0552 -7321.4192 299.6788 -342.5346 -293.1777 29965.6159 172.8119 226.2214
ENERGY: 1500000 2.1076 9.5311 3.2076 0.0000 -10579.1463 1436.5486 0.0000 0.0000 1711.8455 -7415.9058 296.0783 -9127.7513 -7331.5460 299.3484 41.2986 20.7118 29642.7056 127.7968 180.4917
TCL: Running FEP window  15: Lambda1 0.29999999999999966 Lambda2 0.24999999999999967 [dLambda -0.04999999999999999]
TCL: Setting parameter firsttimestep to 0
TCL: Setting parameter alchLambda to 0.29999999999999966
Info: NONBONDED TABLE R-SQUARED SPACING: 0.0625
Info: NONBONDED TABLE SIZE: 705 POINTS
TCL: Setting parameter alchLambda2 to 0.24999999999999967
Info: NONBONDED TABLE R-SQUARED SPACING: 0.0625
Info: NONBONDED TABLE SIZE: 705 POINTS
TCL: Running for 1500000 steps
ETITLE: TS BOND ANGLE DIHED IMPRP ELECT VDW BOUNDARY MISC KINETIC TOTAL TEMP POTENTIAL TOTALAVG TEMPAVG PRESSURE GPRESSURE VOLUME PRESSAVG GPRESSAVG
ENERGY: 0 2.1076 9.5311 3.2076 0.0000 -10579.1457 1436.4178 0.0000 0.0000 1710.9392 -7416.9422 295.9216 -9127.8815 -7416.9422 295.9216 -69.8002 11.8972 29642.7056 -69.8002 11.8972
ENERGY: 300000 1.2842 14.0113 4.1015 0.0000 -10486.9028 1440.4481 0.0000 0.0000 1762.5006 -7264.5571 304.8395 -9027.0577 -7362.8414 299.0210 162.0206 212.5443 29819.9777 258.1376 337.5956
ENERGY: 600000 3.1369 15.6065 3.3311 0.0000 -10536.3259 1437.0479 0.0000 0.0000 1735.5381 -7341.6654 300.1761 -9077.2034 -7356.5888 300.4755 164.6150 179.3947 29655.0143 92.3515 162.8252
ENERGY: 900000 2.2711 10.7086 4.2842 0.0000 -10526.7242 1472.4861 0.0000 0.0000 1723.1394 -7313.8347 298.0317 -9036.9741 -7346.2946 300.7247 294.1427 333.2544 30191.4531 68.3608 140.3320
ENERGY: 1200000 4.3384 8.4051 4.2719 0.0000 -10462.2690 1379.5336 0.0000 0.0000 1748.1440 -7317.5759 302.3565 -9065.7199 -7341.8102 300.2349 46.8239 159.7937 29340.0433 102.4170 174.2384
ENERGY: 1500000 1.8068 12.2150 4.4388 0.0000 -10437.1189 1401.4919 0.0000 0.0000 1736.2728 -7280.8937 300.3032 -9017.1665 -7339.7965 299.6243 -329.9486 -183.2266 30100.3758 -14.3614 62.9111
TCL: Running FEP window  16: Lambda1 0.24999999999999967 Lambda2 0.19999999999999968 [dLambda -0.04999999999999999]
TCL: Setting parameter firsttimestep to 0
TCL: Setting parameter alchLambda to 0.24999999999999967
Info: NONBONDED TABLE R-SQUARED SPACING: 0.0625
Info: NONBONDED TABLE SIZE: 705 POINTS
TCL: Setting parameter alchLambda2 to 0.19999999999999968
Info: NONBONDED TABLE R-SQUARED SPACING: 0.0625
Info: NONBONDED TABLE SIZE: 705 POINTS
TCL: Running for 1500000 steps
ETITLE: TS BOND ANGLE DIHED IMPRP ELECT VDW BOUNDARY MISC KINETIC TOTAL TEMP POTENTIAL TOTALAVG TEMPAVG PRESSURE GPRESSURE VOLUME PRESSAVG GPRESSAVG
ENERGY: 0 1.8068 12.2150 4.4388 0.0000 -10437.1193 1401.9781 0.0000 0.0000 1735.4461 -7281.2346 300.1602 -9016.6807 -7281.2346 300.1602 -280.9000 -187.3978 30100.3758 -280.9000 -187.3978
ENERGY: 300000 1.6798 5.5179 3.2609 0.0000 -10371.2397 1352.6703 0.0000 0.0000 1734.8705 -7273.2402 300.0607 -9008.1107 -7302.2549 299.2172 -555.8546 -510.0820 30157.3301 -21.0769 79.0846
ENERGY: 600000 1.1647 8.3933 5.2482 0.0000 -10411.4508 1360.0805 0.0000 0.0000 1772.5938 -7263.9703 306.5852 -9036.5641 -7285.2202 301.8073 -427.2103 -406.1927 29960.7960 -148.6563 -59.9987
ENERGY: 900000 1.1474 8.3276 3.0235 0.0000 -10505.3912 1470.2078 0.0000 0.0000 1739.5588 -7283.1261 300.8716 -9022.6849 -7286.2916 302.2721 882.4296 977.6849 29226.5797 97.3717 179.0346
ENERGY: 1200000 3.9717 9.1015 3.3661 0.0000 -10441.9989 1394.9486 0.0000 0.0000 1793.0637 -7237.5472 310.1257 -9030.6109 -7293.7580 302.4909 56.1357 130.1543 29462.2894 58.1147 133.5170
ENERGY: 1500000 1.1077 11.1441 3.4526 0.0000 -10512.1737 1394.8920 0.0000 0.0000 1789.2751 -7312.3022 309.4704 -9101.5774 -7305.1416 302.7345 -458.1071 -340.3655 30184.8848 79.5729 157.9625
TCL: Running FEP window  17: Lambda1 0.19999999999999968 Lambda2 0.1499999999999997 [dLambda -0.04999999999999999]
TCL: Setting parameter firsttimestep to 0
TCL: Setting parameter alchLambda to 0.19999999999999968
Info: NONBONDED TABLE R-SQUARED SPACING: 0.0625
Info: NONBONDED TABLE SIZE: 705 POINTS
TCL: Setting parameter alchLambda2 to 0.1499999999999997
Info: NONBONDED TABLE R-SQUARED SPACING: 0.0625
Info: NONBONDED TABLE SIZE: 705 POINTS
TCL: Running for 1500000 steps
ETITLE: TS BOND ANGLE DIHED IMPRP ELECT VDW BOUNDARY MISC KINETIC TOTAL TEMP POTENTIAL TOTALAVG TEMPAVG PRESSURE GPRESSURE VOLUME PRESSAVG GPRESSAVG
ENERGY: 0 1.1077 11.1441 3.4526 0.0000 -10512.1740 1395.1608 0.0000 0.0000 1788.3938 -7312.9151 309.3180 -9101.3089 -7312.9151 309.3180 -417.7375 -340.8681 30184.8848 -417.7375 -340.8681
ENERGY: 300000 1.9492 9.0572 6.1847 0.0000 -10443.2766 1403.0932 0.0000 0.0000 1755.0302 -7267.9620 303.5475 -9022.9922 -7279.2470 303.7895 40.1339 66.6233 29643.3487 -209.8150 -135.9151
ENERGY: 600000 3.4045 15.9785 3.5821 0.0000 -10311.8337 1234.2127 0.0000 0.0000 1755.8411 -7298.8148 303.6877 -9054.6559 -7273.9462 301.4495 -1658.5111 -1658.6160 30467.9525 -351.9985 -298.0329
ENERGY: 900000 0.6425 12.4885 2.3501 0.0000 -10506.1307 1464.4944 0.0000 0.0000 1753.3653 -7272.7899 303.2595 -9026.1552 -7277.6906 302.6241 496.5622 495.1568 29976.8237 -130.3628 -71.8292
ENERGY: 1200000 5.8768 16.0155 5.1949 0.0000 -10295.7189 1279.1142 0.0000 0.0000 1742.5306 -7246.9869 301.3856 -8989.5175 -7282.8007 302.9001 -1153.3355 -1077.0989 30242.4713 -245.0014 -181.1006
ENERGY: 1500000 2.7633 6.5268 6.4060 0.0000 -10509.1811 1443.7634 0.0000 0.0000 1753.5605 -7296.1610 303.2933 -9049.7215 -7287.8985 303.4977 68.1930 145.3084 29932.7251 -193.6326 -125.4158
TCL: Running FEP window  18: Lambda1 0.1499999999999997 Lambda2 0.09999999999999969 [dLambda -0.05 ]
TCL: Setting parameter firsttimestep to 0
TCL: Setting parameter alchLambda to 0.1499999999999997
Info: NONBONDED TABLE R-SQUARED SPACING: 0.0625
Info: NONBONDED TABLE SIZE: 705 POINTS
TCL: Setting parameter alchLambda2 to 0.09999999999999969
Info: NONBONDED TABLE R-SQUARED SPACING: 0.0625
Info: NONBONDED TABLE SIZE: 705 POINTS
TCL: Running for 1500000 steps
ETITLE: TS BOND ANGLE DIHED IMPRP ELECT VDW BOUNDARY MISC KINETIC TOTAL TEMP POTENTIAL TOTALAVG TEMPAVG PRESSURE GPRESSURE VOLUME PRESSAVG GPRESSAVG
ENERGY: 0 2.7633 6.5268 6.4060 0.0000 -10509.1814 1443.3012 0.0000 0.0000 1752.7178 -7297.4662 303.1475 -9050.1840 -7297.4662 303.1475 57.6932 138.3195 29932.7251 57.6932 138.3195
ENERGY: 300000 0.4043 12.0877 2.6909 0.0000 -10540.8915 1415.7566 0.0000 0.0000 1667.5569 -7442.3952 288.4182 -9109.9521 -7373.0164 296.6817 85.2810 182.5686 29154.5233 -27.3012 44.1655
ENERGY: 600000 1.6142 7.7682 3.8015 0.0000 -10434.9684 1383.7338 0.0000 0.0000 1701.9149 -7336.1358 294.3607 -9038.0507 -7367.5916 297.2418 5.9688 63.0305 29398.5544 -155.9286 -90.6962
ENERGY: 900000 0.6388 7.6208 2.4002 0.0000 -10439.4497 1373.2388 0.0000 0.0000 1754.6853 -7300.8658 303.4878 -9055.5512 -7354.9408 297.6285 -407.7659 -332.7603 30032.8139 -150.3840 -88.5110
ENERGY: 1200000 2.6522 8.5536 4.7169 0.0000 -10439.1751 1340.5148 0.0000 0.0000 1685.7651 -7396.9724 291.5675 -9082.7376 -7347.1450 297.6349 -679.9022 -524.8244 29587.3459 -138.1281 -69.9367
ENERGY: 1500000 1.9520 14.7609 3.7653 0.0000 -10590.0880 1487.3806 0.0000 0.0000 1714.0914 -7368.1377 296.4668 -9082.2291 -7342.5443 298.9631 318.5131 347.0773 29901.1010 -12.8216 49.7276
TCL: Running FEP window  19: Lambda1 0.09999999999999969 Lambda2 0.049999999999999684 [dLambda -0.05 ]
TCL: Setting parameter firsttimestep to 0
TCL: Setting parameter alchLambda to 0.09999999999999969
Info: NONBONDED TABLE R-SQUARED SPACING: 0.0625
Info: NONBONDED TABLE SIZE: 705 POINTS
TCL: Setting parameter alchLambda2 to 0.049999999999999684
Info: NONBONDED TABLE R-SQUARED SPACING: 0.0625
Info: NONBONDED TABLE SIZE: 705 POINTS
TCL: Running for 1500000 steps
ETITLE: TS BOND ANGLE DIHED IMPRP ELECT VDW BOUNDARY MISC KINETIC TOTAL TEMP POTENTIAL TOTALAVG TEMPAVG PRESSURE GPRESSURE VOLUME PRESSAVG GPRESSAVG
ENERGY: 0 1.9520 14.7609 3.7653 0.0000 -10590.0888 1487.4257 0.0000 0.0000 1713.2059 -7368.9789 296.3136 -9082.1848 -7368.9789 296.3136 277.7606 341.6882 29901.1010 277.7606 341.6882
ENERGY: 300000 1.5907 11.0392 3.0517 0.0000 -10484.5270 1434.1036 0.0000 0.0000 1780.0643 -7254.6775 307.8773 -9034.7418 -7307.4314 301.7767 393.2966 460.8389 29718.8651 29.4871 72.9098
ENERGY: 600000 1.8842 9.2603 3.6582 0.0000 -10281.1960 1324.8207 0.0000 0.0000 1734.3124 -7207.2601 299.9642 -8941.5725 -7304.7235 298.8579 -456.8339 -391.5575 29620.6668 -74.6966 -24.0961
ENERGY: 900000 1.9343 7.9077 3.6118 0.0000 -10505.8181 1394.2104 0.0000 0.0000 1695.1551 -7402.9989 293.1916 -9098.1540 -7328.9629 297.6756 -437.0006 -368.8691 29987.3987 -129.8718 -69.0450
ENERGY: 1200000 0.6061 9.7212 3.8864 0.0000 -10519.3919 1429.4783 0.0000 0.0000 1804.1859 -7271.5139 312.0494 -9075.6998 -7327.1028 299.5333 175.0721 261.7673 29455.2020 -13.1850 48.9058
ENERGY: 1500000 1.1180 10.3581 4.2087 0.0000 -10623.4580 1483.3736 0.0000 0.0000 1709.7052 -7414.6944 295.7081 -9124.3996 -7337.3683 299.0436 187.9874 281.8291 29699.8751 -53.8411 1.5995
TCL: Running FEP window  20: Lambda1 0.049999999999999684 Lambda2 0.0    [dLambda -0.049999999999999684]
TCL: Setting parameter firsttimestep to 0
TCL: Setting parameter alchLambda to 0.049999999999999684
Info: NONBONDED TABLE R-SQUARED SPACING: 0.0625
Info: NONBONDED TABLE SIZE: 705 POINTS
TCL: Setting parameter alchLambda2 to 0.0
Info: NONBONDED TABLE R-SQUARED SPACING: 0.0625
Info: NONBONDED TABLE SIZE: 705 POINTS
TCL: Running for 1500000 steps
ETITLE: TS BOND ANGLE DIHED IMPRP ELECT VDW BOUNDARY MISC KINETIC TOTAL TEMP POTENTIAL TOTALAVG TEMPAVG PRESSURE GPRESSURE VOLUME PRESSAVG GPRESSAVG
ENERGY: 0 1.1180 10.3581 4.2087 0.0000 -10623.4576 1482.9673 0.0000 0.0000 1708.8357 -7415.9697 295.5577 -9124.8054 -7415.9697 295.5577 188.7143 278.9365 29699.8751 188.7143 278.9365
ENERGY: 300000 1.0212 13.6369 6.0980 0.0000 -10513.7698 1438.6027 0.0000 0.0000 1735.9950 -7318.4159 300.2552 -9054.4109 -7330.0959 301.1351 129.5820 254.6799 29442.2670 207.7644 263.7371
ENERGY: 600000 0.8077 6.8635 2.7167 0.0000 -10465.5504 1352.7531 0.0000 0.0000 1735.9642 -7366.4452 300.2498 -9102.4094 -7355.1475 300.5521 -516.9701 -531.9305 29612.2675 234.1312 277.3272
ENERGY: 900000 2.3473 8.3685 3.0523 0.0000 -10516.4612 1440.4591 0.0000 0.0000 1710.3736 -7351.8604 295.8237 -9062.2340 -7333.5476 300.3533 94.0221 79.8586 29986.1008 261.2312 306.8186
ENERGY: 1200000 3.1742 15.7367 3.5143 0.0000 -10467.9398 1420.2812 0.0000 0.0000 1718.4117 -7306.8217 297.2140 -9025.2334 -7334.3252 298.7879 -137.8885 -44.4657 29698.4072 71.2969 115.1358
ENERGY: 1500000 2.7500 10.7150 3.6446 0.0000 -10383.3559 1345.3107 0.0000 0.0000 1823.4348 -7197.5007 315.3786 -9020.9355 -7331.5628 299.7747 -314.3563 -286.6183 29736.4189 33.0254 77.1476
TCL: Exiting due to exit command.
