Info: SIMULATION PARAMETERS:
Info: TIMESTEP               2
Info: NUMBER OF STEPS        0
Info: STEPS PER CYCLE        10
Info: PERIODIC CELL BASIS 1  29.1031 0 0
Info: PERIODIC CELL BASIS 2  0 30.2555 0
Info: PERIODIC CELL BASIS 3  0 0 33.8931
Info: PERIODIC CELL CENTER   0 0 0
Info: WRAPPING WATERS AROUND PERIODIC BOUNDARIES ON OUTPUT.
Info: WRAPPING ALL CLUSTERS AROUND PERIODIC BOUNDARIES ON OUTPUT.
Info: FIRST LDB TIMESTEP     50
Info: LAST LDB TIMESTEP     -1
Info: HOM BACKGROUND SCALING 1
Info: PME BACKGROUND SCALING 1
Info: MIN ATOMS PER PATCH    40
Info: EMPTY PATCH LOAD       40 ATOMS
Info: VELOCITY FILE          mobley_3318135_equil.vel
Info: CENTER OF MASS MOVING INITIALLY? NO
Info: DIELECTRIC             1
Info: EXCLUDE                SCALED ONE-FOUR
Info: 1-4 ELECTROSTATICS SCALED BY 0.833333
Info: MODIFIED 1-4 VDW PARAMETERS WILL BE USED
Info: DCD FILENAME           mobley_3318135_prod.dcd
Info: DCD FREQUENCY          100000
Info: DCD FIRST STEP         100000
Info: DCD FILE WILL CONTAIN UNIT CELL DATA
Info: XST FILENAME           mobley_3318135_prod.xst
Info: XST FREQUENCY          100000
Info: NO VELOCITY DCD OUTPUT
Info: NO FORCE DCD OUTPUT
Info: OUTPUT FILENAME        mobley_3318135_prod
Info: BINARY OUTPUT FILES WILL BE USED
Info: RESTART FILENAME       mobley_3318135_prod.restart
Info: RESTART FREQUENCY      100000
Info: BINARY RESTART FILES WILL BE USED
Info: CUTOFF                 9
Info: PAIRLIST DISTANCE      11
Info: PAIRLIST SHRINK RATE   0.01
Info: PAIRLIST GROW RATE     0.01
Info: PAIRLIST TRIGGER       0.3
Info: PAIRLISTS PER CYCLE    2
Info: PAIRLISTS ENABLED
Info: MARGIN                 2
Info: HYDROGEN GROUP CUTOFF  2.5
Info: PATCH DIMENSION        15.5
Info: ENERGY OUTPUT STEPS    100000
Info: ENERGY EVALUATION STEPS    100000
Info: OUTPUT ENERGY PRECISION 4
Info: CROSSTERM ENERGY INCLUDED IN DIHEDRAL
Info: TIMING OUTPUT STEPS    1000000
Info: PRESSURE OUTPUT STEPS  100000
Info: ALCHEMICAL FEP ON
Info: FEP CURRENT LAMBDA VALUE     0
Info: FEP COMPARISON LAMBDA VALUE  0.05
Info: FEP INTRA-ALCHEMICAL NON-BONDED INTERACTIONS WILL BE RETAINED
Info: FEP INTRA-ALCHEMICAL BONDED INTERACTIONS WILL BE RETAINED
Info: FEP VDW SHIFTING COEFFICIENT 5
Info: FEP ELEC. ACTIVE FOR ANNIHILATED PARTICLES BETWEEN LAMBDA = 0 AND LAMBDA = 0.5
Info: FEP ELEC. ACTIVE FOR EXNIHILATED PARTICLES BETWEEN LAMBDA = 0.5 AND LAMBDA = 1
Info: FEP VDW ACTIVE FOR ANNIHILATED PARTICLES BETWEEN LAMBDA = 0 AND LAMBDA = 1
Info: FEP VDW ACTIVE FOR EXNIHILATED PARTICLES BETWEEN LAMBDA = 0 AND LAMBDA = 1
Info: FEP BOND ACTIVE FOR ANNIHILATED PARTICLES BETWEEN LAMBDA = 1 AND LAMBDA = 1
Info: FEP BOND ACTIVE FOR EXNIHILATED PARTICLES BETWEEN LAMBDA = 0 AND LAMBDA = 0
Info: LANGEVIN DYNAMICS ACTIVE
Info: LANGEVIN TEMPERATURE   300
Info: LANGEVIN USING BBK INTEGRATOR
Info: LANGEVIN DAMPING COEFFICIENT IS 1 INVERSE PS
Info: LANGEVIN DYNAMICS APPLIED TO HYDROGENS
Info: LANGEVIN PISTON PRESSURE CONTROL ACTIVE
Info:        TARGET PRESSURE IS 1.01325 BAR
Info:     OSCILLATION PERIOD IS 50 FS
Info:             DECAY TIME IS 25 FS
Info:     PISTON TEMPERATURE IS 300 K
Info:       PRESSURE CONTROL IS GROUP-BASED
Info:    INITIAL STRAIN RATE IS -0.000408252 -0.000408252 -0.000408252
Info:       CELL FLUCTUATION IS ISOTROPIC
Info: PARTICLE MESH EWALD (PME) ACTIVE
Info: PME TOLERANCE               1e-06
Info: PME EWALD COEFFICIENT       0.348832
Info: PME INTERPOLATION ORDER     4
Info: PME GRID DIMENSIONS         32 32 36
Info: PME MAXIMUM GRID SPACING    1
Info: PME CALCULATION WILL BE PERFORMED ON GPU
Info: FULL ELECTROSTATIC EVALUATION FREQUENCY      2
Info: USING VERLET I (r-RESPA) MTS SCHEME.
Info: C1 SPLITTING OF LONG RANGE ELECTROSTATICS
Info: PLACING ATOMS IN PATCHES BY HYDROGEN GROUPS
Info: RIGID BONDS TO HYDROGEN : ALL
Info:         ERROR TOLERANCE : 1e-08
Info:          MAX ITERATIONS : 100
Info: RIGID WATER USING SETTLE ALGORITHM
Info: RANDOM NUMBER SEED     1744072488
Info: USE HYDROGEN BONDS?    NO
Info: Using AMBER format force field!
Info: AMBER PARM FILE        mobley_3318135.prmtop
Info: COORDINATE PDB         mobley_3318135.pdb
Info: Exclusions will be read from PARM file!
Info: SCNB (VDW SCALING)     2
Info: USING ARITHMETIC MEAN TO COMBINE L-J SIGMA PARAMETERS
Info: BINARY COORDINATES     mobley_3318135_equil.coor
Info: SUMMARY OF PARAMETERS:
Info: 6 BONDS
Info: 7 ANGLES
Info:   7 HARMONIC
Info:   0 COSINE-BASED
Info: 11 DIHEDRAL
Info: 0 IMPROPER
Info: 0 CROSSTERM
Info: 0 VDW
Info: 21 VDW_PAIRS
Info: 0 NBTHOLE_PAIRS
Info: To read alchdata from file: mobley_3318135.pdb
Info: To read alchflag data from column: 5
Info: STRUCTURE SUMMARY:
Info: 2902 ATOMS
Info: 2901 BONDS
Info: 51 ANGLES
Info: 79 DIHEDRALS
Info: 0 IMPROPERS
Info: 0 CROSSTERMS
Info: 3018 EXCLUSIONS
Info: 2892 RIGID BONDS
Info: ALCH: 0 ATOMS TO DISAPPEAR IN FINAL STATE
Info: ALCH: 28 ATOMS TO APPEAR IN FINAL STATE
Info: 5814 DEGREES OF FREEDOM
Info: 968 HYDROGEN GROUPS
Info: 4 ATOMS IN LARGEST HYDROGEN GROUP
Info: 968 MIGRATION GROUPS
Info: 4 ATOMS IN LARGEST MIGRATION GROUP
Info: TOTAL MASS = 17401.6 amu
Info: TOTAL CHARGE = -0.000400022 e
Info: MASS DENSITY = 0.968262 g/cm^3
Info: ATOM DENSITY = 0.0972395 atoms/A^3
Info: ADDED 0 IMPLICIT EXCLUSIONS
Info: NONBONDED TABLE R-SQUARED SPACING: 0.0625
Info: NONBONDED TABLE SIZE: 705 POINTS
Info: REMOVING COM VELOCITY 0.133497 0.129174 -0.161363
Info: Use 3D box decompostion in PME FFT.
Info: Updated CUDA force table with 4096 elements.
Info: Updated CUDA LJ table with 6 x 6 elements.
Info: Found 29 unique exclusion lists needing 104 bytes
TCL: Running for 1500000 steps
ETITLE: TS BOND ANGLE DIHED IMPRP ELECT VDW BOUNDARY MISC KINETIC TOTAL TEMP POTENTIAL TOTALAVG TEMPAVG PRESSURE GPRESSURE VOLUME PRESSAVG GPRESSAVG
ENERGY: 0 1.6447 14.4655 4.8891 0.0000 -10378.8165 1355.1443 0.0000 0.0000 1709.6805 -7292.9923 295.9582 -9002.6728 -7292.9923 295.9582 -432.4001 -364.1317 29843.8313 -432.4001 -364.1317
ENERGY: 300000 1.7568 11.5631 6.7679 0.0000 -10573.1855 1481.8454 0.0000 0.0000 1720.5878 -7350.6645 297.8463 -9071.2522 -7348.3442 295.3005 338.3208 433.2552 29688.4444 240.1626 329.0647
ENERGY: 600000 6.6392 7.5177 5.3546 0.0000 -10519.0587 1407.7336 0.0000 0.0000 1719.8898 -7371.9237 297.7255 -9091.8136 -7346.2666 296.2370 -176.2239 -137.4428 29575.1261 180.7396 251.0113
ENERGY: 900000 1.5400 17.2242 8.0646 0.0000 -10468.2435 1389.9434 0.0000 0.0000 1707.5225 -7343.9487 295.5846 -9051.4712 -7329.6364 297.4536 199.2037 176.4028 28887.6609 -7.1287 47.9123
ENERGY: 1200000 5.4330 16.1151 5.0283 0.0000 -10377.6972 1369.0705 0.0000 0.0000 1713.9446 -7268.1057 296.6963 -8982.0503 -7330.3769 297.8035 -494.4714 -435.8106 29885.5891 -13.8689 41.1060
ENERGY: 1500000 2.7473 13.0582 4.1795 0.0000 -10617.5197 1498.0708 0.0000 0.0000 1680.6083 -7418.8556 290.9255 -9099.4639 -7330.5631 297.4060 491.7048 565.1460 29324.1516 9.3630 67.2467
TCL: Running FEP window   2: Lambda1 0.05   Lambda2 0.1    [dLambda 0.05  ]
TCL: Setting parameter firsttimestep to 0
TCL: Setting parameter alchLambda to 0.05
Info: NONBONDED TABLE R-SQUARED SPACING: 0.0625
Info: NONBONDED TABLE SIZE: 705 POINTS
TCL: Setting parameter alchLambda2 to 0.1
Info: NONBONDED TABLE R-SQUARED SPACING: 0.0625
Info: NONBONDED TABLE SIZE: 705 POINTS
TCL: Running for 1500000 steps
ETITLE: TS BOND ANGLE DIHED IMPRP ELECT VDW BOUNDARY MISC KINETIC TOTAL TEMP POTENTIAL TOTALAVG TEMPAVG PRESSURE GPRESSURE VOLUME PRESSAVG GPRESSAVG
ENERGY: 0 2.7473 13.0582 4.1795 0.0000 -10617.5193 1500.6140 0.0000 0.0000 1679.7472 -7417.1731 290.7765 -9096.9203 -7417.1731 290.7765 486.1784 574.6478 29324.1516 486.1784 574.6478
ENERGY: 300000 3.5534 9.7430 4.6788 0.0000 -10425.9092 1378.2285 0.0000 0.0000 1728.0776 -7301.6279 299.1428 -9029.7055 -7314.5525 298.0828 -338.1867 -287.7111 29428.8660 77.3803 155.0709
ENERGY: 600000 2.3351 14.7914 5.1359 0.0000 -10428.8071 1353.5479 0.0000 0.0000 1713.4540 -7339.5427 296.6114 -9052.9968 -7323.3970 299.0408 -667.1261 -568.3879 29749.9945 -193.3856 -100.1007
ENERGY: 900000 1.4186 10.9158 6.6751 0.0000 -10413.7970 1331.3450 0.0000 0.0000 1685.5823 -7377.8602 291.7866 -9063.4425 -7344.3535 297.4620 -554.9248 -555.9084 29401.4413 -231.3530 -154.9698
ENERGY: 1200000 3.5177 12.0414 4.6372 0.0000 -10453.3981 1399.9203 0.0000 0.0000 1743.3519 -7289.9296 301.7869 -9033.2815 -7333.2963 298.4396 -484.9562 -435.6682 30140.0407 -306.0187 -231.4948
ENERGY: 1500000 0.7394 11.2376 3.6913 0.0000 -10529.6000 1478.7730 0.0000 0.0000 1777.4100 -7257.7487 307.6826 -9035.1587 -7332.0685 298.9255 442.8253 495.0936 29885.6699 -232.2513 -160.0542
TCL: Running FEP window   3: Lambda1 0.1    Lambda2 0.15000000000000002 [dLambda 0.05000000000000002]
TCL: Setting parameter firsttimestep to 0
TCL: Setting parameter alchLambda to 0.1
Info: NONBONDED TABLE R-SQUARED SPACING: 0.0625
Info: NONBONDED TABLE SIZE: 705 POINTS
TCL: Setting parameter alchLambda2 to 0.15000000000000002
Info: NONBONDED TABLE R-SQUARED SPACING: 0.0625
Info: NONBONDED TABLE SIZE: 705 POINTS
TCL: Running for 1500000 steps
ETITLE: TS BOND ANGLE DIHED IMPRP ELECT VDW BOUNDARY MISC KINETIC TOTAL TEMP POTENTIAL TOTALAVG TEMPAVG PRESSURE GPRESSURE VOLUME PRESSAVG GPRESSAVG
ENERGY: 0 0.7394 11.2376 3.6913 0.0000 -10529.5991 1480.9721 0.0000 0.0000 1776.5238 -7256.4349 307.5292 -9032.9588 -7256.4349 307.5292 424.2744 507.1299 29885.6699 424.2744 507.1299
ENERGY: 300000 2.6643 12.2880 5.4668 0.0000 -10516.1770 1438.5714 0.0000 0.0000 1759.2039 -7297.9827 304.5310 -9057.1866 -7241.4778 305.3684 333.7770 374.1243 29568.0513 417.1353 472.3166
ENERGY: 600000 3.0681 13.2864 4.6132 0.0000 -10426.8691 1361.4093 0.0000 0.0000 1739.6142 -7304.8779 301.1399 -9044.4921 -7271.7309 304.2812 -595.6456 -491.3631 29813.7675 54.3426 119.4331
ENERGY: 900000 2.8129 14.3572 5.0914 0.0000 -10376.4042 1365.9126 0.0000 0.0000 1719.8381 -7268.3921 297.7165 -8988.2302 -7251.4336 303.7911 -369.3401 -298.8259 29936.3554 -108.7990 -47.2079
ENERGY: 1200000 3.4199 15.8309 4.4413 0.0000 -10508.4746 1407.5057 0.0000 0.0000 1744.6270 -7332.6498 302.0076 -9077.2768 -7258.4423 303.1834 -16.3105 62.2531 29564.5548 -74.8458 -17.3093
ENERGY: 1500000 2.9649 20.3717 5.1147 0.0000 -10532.0238 1419.2425 0.0000 0.0000 1760.1444 -7324.1857 304.6938 -9084.3301 -7266.8924 302.8451 -210.5486 -100.8743 29824.0103 -102.2227 -43.2814
TCL: Running FEP window   4: Lambda1 0.15000000000000002 Lambda2 0.2    [dLambda 0.04999999999999999]
TCL: Setting parameter firsttimestep to 0
TCL: Setting parameter alchLambda to 0.15000000000000002
Info: NONBONDED TABLE R-SQUARED SPACING: 0.0625
Info: NONBONDED TABLE SIZE: 705 POINTS
TCL: Setting parameter alchLambda2 to 0.2
Info: NONBONDED TABLE R-SQUARED SPACING: 0.0625
Info: NONBONDED TABLE SIZE: 705 POINTS
TCL: Running for 1500000 steps
ETITLE: TS BOND ANGLE DIHED IMPRP ELECT VDW BOUNDARY MISC KINETIC TOTAL TEMP POTENTIAL TOTALAVG TEMPAVG PRESSURE GPRESSURE VOLUME PRESSAVG GPRESSAVG
ENERGY: 0 2.9649 20.3717 5.1147 0.0000 -10532.0238 1420.3336 0.0000 0.0000 1759.2714 -7323.9675 304.5427 -9083.2390 -7323.9675 304.5427 -155.0277 -91.3599 29824.0103 -155.0277 -91.3599
ENERGY: 300000 4.8481 16.4523 6.1601 0.0000 -10493.2361 1458.4908 0.0000 0.0000 1689.8173 -7317.4675 292.5197 -9007.2848 -7311.1317 299.4027 635.0580 757.2018 29218.9319 -137.6694 -67.4686
ENERGY: 600000 4.1575 15.1407 8.4766 0.0000 -10463.0198 1365.6115 0.0000 0.0000 1808.1472 -7261.4863 313.0035 -9069.6335 -7308.0767 301.2720 -550.8645 -536.2579 29771.4047 -114.1207 -51.5956
ENERGY: 900000 2.8986 9.2493 6.2643 0.0000 -10457.7983 1380.9129 0.0000 0.0000 1705.7007 -7352.7725 295.2692 -9058.4733 -7320.6412 300.2829 -498.0565 -404.3876 29830.7968 -154.2422 -90.8502
ENERGY: 1200000 2.0385 8.1945 7.0724 0.0000 -10486.2497 1405.4300 0.0000 0.0000 1761.8550 -7301.6593 304.9899 -9063.5143 -7324.8380 299.2565 -74.2104 -1.9768 29505.7064 -134.1114 -68.2913
ENERGY: 1500000 3.1611 9.5826 4.4378 0.0000 -10356.8253 1382.1034 0.0000 0.0000 1757.8444 -7199.6961 304.2957 -8957.5404 -7314.0007 299.3223 -114.6110 -93.5652 29981.4960 -138.8775 -80.6530
TCL: Running FEP window   5: Lambda1 0.2    Lambda2 0.25   [dLambda 0.04999999999999999]
TCL: Setting parameter firsttimestep to 0
TCL: Setting parameter alchLambda to 0.2
Info: NONBONDED TABLE R-SQUARED SPACING: 0.0625
Info: NONBONDED TABLE SIZE: 705 POINTS
TCL: Setting parameter alchLambda2 to 0.25
Info: NONBONDED TABLE R-SQUARED SPACING: 0.0625
Info: NONBONDED TABLE SIZE: 705 POINTS
TCL: Running for 1500000 steps
ETITLE: TS BOND ANGLE DIHED IMPRP ELECT VDW BOUNDARY MISC KINETIC TOTAL TEMP POTENTIAL TOTALAVG TEMPAVG PRESSURE GPRESSURE VOLUME PRESSAVG GPRESSAVG
ENERGY: 0 3.1611 9.5826 4.4378 0.0000 -10356.8262 1383.3891 0.0000 0.0000 1756.9772 -7199.2785 304.1456 -8956.2557 -7199.2785 304.1456 -155.5775 -84.0650 29981.4960 -155.5775 -84.0650
ENERGY: 300000 3.2735 11.6348 4.6641 0.0000 -10527.7194 1479.9109 0.0000 0.0000 1783.9711 -7244.2650 308.8184 -9028.2361 -7265.1023 302.7330 760.8151 829.3801 29438.5405 -95.5189 -38.6649
ENERGY: 600000 2.4820 11.3500 5.7451 0.0000 -10371.4337 1348.6609 0.0000 0.0000 1697.7849 -7305.4108 293.8989 -9003.1956 -7302.7639 298.6939 -808.6600 -667.1553 29985.3232 -12.3680 50.3400
ENERGY: 900000 2.4230 18.4618 6.1670 0.0000 -10446.6897 1457.8546 0.0000 0.0000 1774.8869 -7186.8963 307.2459 -8961.7833 -7285.1112 301.3675 534.6744 540.3623 30230.0356 56.6512 112.1475
ENERGY: 1200000 5.0085 12.3167 5.5465 0.0000 -10531.5939 1361.1534 0.0000 0.0000 1727.7932 -7419.7755 299.0936 -9147.5687 -7296.4281 300.6910 -683.8896 -583.6912 29297.1488 -29.2248 31.6071
ENERGY: 1500000 1.9035 12.2342 6.8585 0.0000 -10412.0091 1389.5081 0.0000 0.0000 1751.7736 -7249.7311 303.2448 -9001.5047 -7284.4389 301.5714 43.3751 111.3668 29395.1052 -33.4102 29.1098
TCL: Running FEP window   6: Lambda1 0.25   Lambda2 0.3    [dLambda 0.04999999999999999]
TCL: Setting parameter firsttimestep to 0
TCL: Setting parameter alchLambda to 0.25
Info: NONBONDED TABLE R-SQUARED SPACING: 0.0625
Info: NONBONDED TABLE SIZE: 705 POINTS
TCL: Setting parameter alchLambda2 to 0.3
Info: NONBONDED TABLE R-SQUARED SPACING: 0.0625
Info: NONBONDED TABLE SIZE: 705 POINTS
TCL: Running for 1500000 steps
ETITLE: TS BOND ANGLE DIHED IMPRP ELECT VDW BOUNDARY MISC KINETIC TOTAL TEMP POTENTIAL TOTALAVG TEMPAVG PRESSURE GPRESSURE VOLUME PRESSAVG GPRESSAVG
ENERGY: 0 1.9035 12.2342 6.8585 0.0000 -10412.0086 1389.8203 0.0000 0.0000 1750.9342 -7250.2578 303.0995 -9001.1920 -7250.2578 303.0995 41.5620 117.7010 29395.1052 41.5620 117.7010
ENERGY: 300000 2.1372 11.6112 8.3146 0.0000 -10331.9129 1334.4960 0.0000 0.0000 1677.5870 -7297.7668 290.4025 -8975.3539 -7263.5281 299.2820 -432.9081 -344.6144 29935.4413 -60.2872 -12.6681
ENERGY: 600000 4.6656 15.8184 5.3817 0.0000 -10376.2564 1387.4669 0.0000 0.0000 1778.4344 -7184.4895 307.8600 -8962.9239 -7247.1678 303.6144 -155.3855 -50.6437 29874.6051 -221.3418 -173.8456
ENERGY: 900000 2.5186 11.2585 6.8285 0.0000 -10375.5578 1404.3130 0.0000 0.0000 1738.1677 -7212.4714 300.8895 -8950.6392 -7267.3630 302.6237 -153.0354 -66.6650 30271.1934 -135.3391 -77.9959
ENERGY: 1200000 3.3669 14.9852 6.0848 0.0000 -10425.6885 1383.1284 0.0000 0.0000 1744.6711 -7273.4520 302.0153 -9018.1232 -7279.3382 301.2158 69.6243 91.7479 29500.0911 -122.7358 -70.1526
ENERGY: 1500000 1.4097 17.5714 4.7091 0.0000 -10617.6237 1497.7069 0.0000 0.0000 1747.2537 -7348.9729 302.4624 -9096.2266 -7288.3722 300.8386 578.7945 651.1728 29476.7164 -78.5156 -22.6699
TCL: Running FEP window   7: Lambda1 0.3    Lambda2 0.35   [dLambda 0.04999999999999999]
TCL: Setting parameter firsttimestep to 0
TCL: Setting parameter alchLambda to 0.3
Info: NONBONDED TABLE R-SQUARED SPACING: 0.0625
Info: NONBONDED TABLE SIZE: 705 POINTS
TCL: Setting parameter alchLambda2 to 0.35
Info: NONBONDED TABLE R-SQUARED SPACING: 0.0625
Info: NONBONDED TABLE SIZE: 705 POINTS
TCL: Running for 1500000 steps
ETITLE: TS BOND ANGLE DIHED IMPRP ELECT VDW BOUNDARY MISC KINETIC TOTAL TEMP POTENTIAL TOTALAVG TEMPAVG PRESSURE GPRESSURE VOLUME PRESSAVG GPRESSAVG
ENERGY: 0 1.4097 17.5714 4.7091 0.0000 -10617.6230 1499.2991 0.0000 0.0000 1746.3738 -7348.2600 302.3100 -9094.6338 -7348.2600 302.3100 586.7935 669.0173 29476.7164 586.7935 669.0173
ENERGY: 300000 1.6450 11.6069 5.4234 0.0000 -10420.3642 1374.4180 0.0000 0.0000 1708.8738 -7318.3972 295.8185 -9027.2710 -7320.2927 302.3364 -397.7288 -313.5130 30093.3786 337.0029 415.0946
ENERGY: 600000 4.2193 12.3429 3.8025 0.0000 -10423.1314 1393.3458 0.0000 0.0000 1811.8963 -7197.5244 313.6525 -9009.4208 -7289.6390 305.5334 300.5691 322.3552 29436.6692 74.2769 137.4542
ENERGY: 900000 4.5650 14.0090 6.0437 0.0000 -10636.4797 1444.2109 0.0000 0.0000 1762.7894 -7404.8618 305.1517 -9167.6512 -7299.8164 304.9751 -75.1009 -12.3057 29555.7986 37.3025 104.9218
ENERGY: 1200000 3.8776 12.9511 3.3431 0.0000 -10497.8071 1459.9275 0.0000 0.0000 1737.4453 -7280.2625 300.7644 -9017.7079 -7294.7937 303.4526 431.1520 498.4243 29736.3007 15.0658 85.9412
ENERGY: 1500000 2.1177 12.2058 5.7058 0.0000 -10522.5569 1502.5671 0.0000 0.0000 1708.1385 -7291.8220 295.6912 -8999.9605 -7295.2888 302.5787 710.3262 811.5093 29763.5610 80.3293 160.2292
TCL: Running FEP window   8: Lambda1 0.35   Lambda2 0.39999999999999997 [dLambda 0.04999999999999999]
TCL: Setting parameter firsttimestep to 0
TCL: Setting parameter alchLambda to 0.35
Info: NONBONDED TABLE R-SQUARED SPACING: 0.0625
Info: NONBONDED TABLE SIZE: 705 POINTS
TCL: Setting parameter alchLambda2 to 0.39999999999999997
Info: NONBONDED TABLE R-SQUARED SPACING: 0.0625
Info: NONBONDED TABLE SIZE: 705 POINTS
TCL: Running for 1500000 steps
ETITLE: TS BOND ANGLE DIHED IMPRP ELECT VDW BOUNDARY MISC KINETIC TOTAL TEMP POTENTIAL TOTALAVG TEMPAVG PRESSURE GPRESSURE VOLUME PRESSAVG GPRESSAVG
ENERGY: 0 2.1177 12.2058 5.7058 0.0000 -10522.5562 1502.3751 0.0000 0.0000 1707.3065 -7292.8453 295.5472 -9000.1518 -7292.8453 295.5472 725.8628 815.5782 29763.5610 725.8628 815.5782
ENERGY: 300000 2.4248 11.1469 4.9163 0.0000 -10563.6184 1470.1034 0.0000 0.0000 1726.6109 -7348.4161 298.8889 -9075.0270 -7326.3198 297.9826 423.4686 474.2123 29368.0502 182.7834 251.4979
ENERGY: 600000 2.9058 13.4866 6.2970 0.0000 -10368.0948 1336.4815 0.0000 0.0000 1712.8013 -7296.1228 296.4984 -9008.9241 -7331.0991 298.3163 -796.8179 -634.4846 30012.6896 114.9523 201.7134
ENERGY: 900000 2.4632 18.2862 6.6770 0.0000 -10425.3539 1340.9248 0.0000 0.0000 1751.0887 -7305.9140 303.1262 -9057.0027 -7307.2124 299.3450 -568.6105 -547.8108 29948.2029 45.0438 122.1882
ENERGY: 1200000 3.4308 14.5843 4.9697 0.0000 -10550.9632 1402.7156 0.0000 0.0000 1717.3578 -7407.9051 297.2871 -9125.2629 -7315.5689 299.7065 -499.5575 -423.7782 29808.3715 33.6017 105.3356
ENERGY: 1500000 3.0258 13.5004 5.1240 0.0000 -10652.0485 1513.4241 0.0000 0.0000 1753.2073 -7363.7669 303.4930 -9116.9742 -7323.5775 299.0561 920.4146 893.4652 29189.6583 73.2503 133.8424
TCL: Running FEP window   9: Lambda1 0.39999999999999997 Lambda2 0.44999999999999996 [dLambda 0.04999999999999999]
TCL: Setting parameter firsttimestep to 0
TCL: Setting parameter alchLambda to 0.39999999999999997
Info: NONBONDED TABLE R-SQUARED SPACING: 0.0625
Info: NONBONDED TABLE SIZE: 705 POINTS
TCL: Setting parameter alchLambda2 to 0.44999999999999996
Info: NONBONDED TABLE R-SQUARED SPACING: 0.0625
Info: NONBONDED TABLE SIZE: 705 POINTS
TCL: Running for 1500000 steps
ETITLE: TS BOND ANGLE DIHED IMPRP ELECT VDW BOUNDARY MISC KINETIC TOTAL TEMP POTENTIAL TOTALAVG TEMPAVG PRESSURE GPRESSURE VOLUME PRESSAVG GPRESSAVG
ENERGY: 0 3.0258 13.5004 5.1240 0.0000 -10652.0493 1514.2819 0.0000 0.0000 1752.3291 -7363.7881 303.3409 -9116.1172 -7363.7881 303.3409 828.7592 909.5942 29189.6583 828.7592 909.5942
ENERGY: 300000 4.3193 11.1444 5.5387 0.0000 -10412.6724 1374.8790 0.0000 0.0000 1741.6720 -7275.1191 301.4961 -9016.7910 -7330.1431 299.2508 -360.3650 -334.8739 30094.5678 -58.9192 0.0794
ENERGY: 600000 2.5583 9.1044 6.1631 0.0000 -10447.4467 1364.9261 0.0000 0.0000 1743.5329 -7321.1620 301.8182 -9064.6948 -7329.8919 299.0351 -464.4460 -390.3007 29788.1069 -71.0024 -4.6379
ENERGY: 900000 1.6732 20.7620 6.1649 0.0000 -10576.3412 1456.5482 0.0000 0.0000 1743.4754 -7347.7174 301.8083 -9091.1928 -7328.1461 298.6627 498.5259 563.2589 29407.8508 -143.0050 -74.9380
ENERGY: 1200000 1.7229 11.2707 6.3461 0.0000 -10617.0511 1497.8622 0.0000 0.0000 1719.2453 -7380.6039 297.6139 -9099.8492 -7322.8503 298.7887 485.8136 531.4024 29562.0827 -121.3611 -59.0720
ENERGY: 1500000 2.8693 12.1230 6.7361 0.0000 -10422.0163 1343.5104 0.0000 0.0000 1708.9580 -7347.8194 295.8331 -9056.7774 -7328.0882 298.5191 -805.8627 -697.6355 29997.5909 -146.1453 -83.7431
TCL: Running FEP window  10: Lambda1 0.44999999999999996 Lambda2 0.49999999999999994 [dLambda 0.04999999999999999]
TCL: Setting parameter firsttimestep to 0
TCL: Setting parameter alchLambda to 0.44999999999999996
Info: NONBONDED TABLE R-SQUARED SPACING: 0.0625
Info: NONBONDED TABLE SIZE: 705 POINTS
TCL: Setting parameter alchLambda2 to 0.49999999999999994
Info: NONBONDED TABLE R-SQUARED SPACING: 0.0625
Info: NONBONDED TABLE SIZE: 705 POINTS
TCL: Running for 1500000 steps
ETITLE: TS BOND ANGLE DIHED IMPRP ELECT VDW BOUNDARY MISC KINETIC TOTAL TEMP POTENTIAL TOTALAVG TEMPAVG PRESSURE GPRESSURE VOLUME PRESSAVG GPRESSAVG
ENERGY: 0 2.8693 12.1230 6.7361 0.0000 -10422.0174 1343.2849 0.0000 0.0000 1708.1019 -7348.9021 295.6849 -9057.0040 -7348.9021 295.6849 -764.6407 -691.3363 29997.5909 -764.6407 -691.3363
ENERGY: 300000 5.4485 12.6713 5.4450 0.0000 -10508.9508 1425.8839 0.0000 0.0000 1760.1583 -7299.3438 304.6962 -9059.5022 -7263.0116 305.3972 241.8028 239.9711 29929.8951 -167.2556 -125.8334
ENERGY: 600000 1.4312 18.2110 5.9423 0.0000 -10421.7591 1343.3564 0.0000 0.0000 1733.5174 -7319.3008 300.0845 -9052.8182 -7273.4526 304.1369 -622.4051 -571.6718 30068.1064 -187.8379 -141.7544
ENERGY: 900000 2.4320 8.6478 6.6173 0.0000 -10462.6168 1425.2731 0.0000 0.0000 1765.8577 -7253.7889 305.6828 -9019.6466 -7267.7347 304.2662 138.6000 151.7163 29825.1740 -101.6630 -59.4801
ENERGY: 1200000 1.2034 15.5299 6.0553 0.0000 -10295.1544 1243.6404 0.0000 0.0000 1686.1582 -7342.5672 291.8863 -9028.7254 -7279.9415 302.6044 -1347.5345 -1176.1443 29626.8395 -202.6399 -148.9893
ENERGY: 1500000 3.0897 15.3774 4.7905 0.0000 -10535.1342 1390.2333 0.0000 0.0000 1757.4776 -7364.1656 304.2322 -9121.6432 -7285.9389 302.6702 -457.6255 -457.2106 29861.8734 -242.2077 -193.0020
TCL: Running FEP window  11: Lambda1 0.49999999999999994 Lambda2 0.5499999999999999 [dLambda 0.04999999999999999]
TCL: Setting parameter firsttimestep to 0
TCL: Setting parameter alchLambda to 0.49999999999999994
Info: NONBONDED TABLE R-SQUARED SPACING: 0.0625
Info: NONBONDED TABLE SIZE: 705 POINTS
TCL: Setting parameter alchLambda2 to 0.5499999999999999
Info: NONBONDED TABLE R-SQUARED SPACING: 0.0625
Info: NONBONDED TABLE SIZE: 705 POINTS
TCL: Running for 1500000 steps
ETITLE: TS BOND ANGLE DIHED IMPRP ELECT VDW BOUNDARY MISC KINETIC TOTAL TEMP POTENTIAL TOTALAVG TEMPAVG PRESSURE GPRESSURE VOLUME PRESSAVG GPRESSAVG
ENERGY: 0 3.0897 15.3774 4.7905 0.0000 -10535.1351 1392.6217 0.0000 0.0000 1756.5974 -7362.6583 304.0798 -9119.2557 -7362.6583 304.0798 -514.1766 -428.7364 29861.8734 -514.1766 -428.7364
ENERGY: 300000 3.1435 15.6935 6.6260 0.0000 -10310.4871 1376.2909 0.0000 0.0000 1703.7444 -7204.9889 294.9306 -8908.7333 -7303.1386 298.8278 -190.0194 -141.9924 30203.7697 -312.4489 -246.1985
ENERGY: 600000 1.2761 8.5310 6.3684 0.0000 -10333.2174 1295.8430 0.0000 0.0000 1656.8753 -7364.3237 286.8172 -9021.1990 -7301.2656 299.2736 -773.8196 -704.5395 29778.6614 -251.9154 -197.3502
ENERGY: 900000 1.8515 20.8570 6.8409 0.0000 -10419.7835 1386.1345 0.0000 0.0000 1782.8560 -7221.2437 308.6254 -9004.0997 -7289.4067 301.1525 132.9216 144.3491 29783.7914 -122.6815 -64.7046
ENERGY: 1200000 1.2084 11.8292 6.7577 0.0000 -10494.7978 1453.0964 0.0000 0.0000 1700.4925 -7321.4135 294.3677 -9021.9060 -7306.9785 299.7031 307.2785 390.1318 29860.5402 -83.2072 -21.1371
ENERGY: 1500000 0.7587 19.2660 7.7364 0.0000 -10489.1067 1373.6774 0.0000 0.0000 1665.6272 -7422.0410 288.3322 -9087.6682 -7322.4915 298.4080 -283.7608 -176.7403 29295.1486 -33.3236 32.0463
TCL: Running FEP window  12: Lambda1 0.5499999999999999 Lambda2 0.6    [dLambda 0.050000000000000044]
TCL: Setting parameter firsttimestep to 0
TCL: Setting parameter alchLambda to 0.5499999999999999
Info: NONBONDED TABLE R-SQUARED SPACING: 0.0625
Info: NONBONDED TABLE SIZE: 705 POINTS
TCL: Setting parameter alchLambda2 to 0.6
Info: NONBONDED TABLE R-SQUARED SPACING: 0.0625
Info: NONBONDED TABLE SIZE: 705 POINTS
TCL: Running for 1500000 steps
ETITLE: TS BOND ANGLE DIHED IMPRP ELECT VDW BOUNDARY MISC KINETIC TOTAL TEMP POTENTIAL TOTALAVG TEMPAVG PRESSURE GPRESSURE VOLUME PRESSAVG GPRESSAVG
ENERGY: 0 0.7587 19.2661 7.7364 0.0000 -10488.9643 1373.8366 0.0000 0.0000 1664.7998 -7422.5667 288.1890 -9087.3665 -7422.5667 288.1890 -242.4842 -158.7076 29295.1486 -242.4842 -158.7076
ENERGY: 300000 2.7742 9.1308 4.7639 0.0000 -10495.2281 1424.0747 0.0000 0.0000 1726.7865 -7327.6980 298.9193 -9054.4845 -7335.8784 298.4908 78.0525 118.5036 29538.0005 234.4367 301.9817
ENERGY: 600000 0.8004 12.1949 3.9359 0.0000 -10646.7349 1484.7116 0.0000 0.0000 1726.8746 -7418.2177 298.9346 -9145.0922 -7331.2599 298.5718 223.1865 224.9696 30048.4828 50.9631 112.1469
ENERGY: 900000 3.3753 15.6856 7.3801 0.0000 -10550.6399 1440.6636 0.0000 0.0000 1747.9187 -7335.6167 302.5775 -9083.5354 -7313.2291 299.7745 40.2768 141.5776 29822.9033 -5.5238 59.2931
ENERGY: 1200000 2.6374 19.2207 5.3007 0.0000 -10341.5114 1336.7532 0.0000 0.0000 1753.3617 -7224.2377 303.5197 -8977.5993 -7310.0015 299.7104 -246.0988 -284.5536 29887.3010 -76.0497 -18.9523
ENERGY: 1500000 1.0187 18.5867 5.9342 0.0000 -10464.8194 1428.5176 0.0000 0.0000 1679.2697 -7331.4925 290.6938 -9010.7622 -7301.8792 299.5238 103.9698 161.6634 30004.5357 -139.3133 -87.4951
TCL: Running FEP window  13: Lambda1 0.6    Lambda2 0.65   [dLambda 0.050000000000000044]
TCL: Setting parameter firsttimestep to 0
TCL: Setting parameter alchLambda to 0.6
Info: NONBONDED TABLE R-SQUARED SPACING: 0.0625
Info: NONBONDED TABLE SIZE: 705 POINTS
TCL: Setting parameter alchLambda2 to 0.65
Info: NONBONDED TABLE R-SQUARED SPACING: 0.0625
Info: NONBONDED TABLE SIZE: 705 POINTS
TCL: Running for 1500000 steps
ETITLE: TS BOND ANGLE DIHED IMPRP ELECT VDW BOUNDARY MISC KINETIC TOTAL TEMP POTENTIAL TOTALAVG TEMPAVG PRESSURE GPRESSURE VOLUME PRESSAVG GPRESSAVG
ENERGY: 0 1.0187 18.5867 5.9342 0.0000 -10465.0025 1430.5154 0.0000 0.0000 1678.3969 -7330.5507 290.5427 -9008.9476 -7330.5507 290.5427 114.4462 195.0664 30004.5357 114.4462 195.0664
ENERGY: 300000 2.8193 15.5766 5.2297 0.0000 -10468.3016 1390.3963 0.0000 0.0000 1733.8054 -7320.4743 300.1344 -9054.2797 -7298.1331 298.7836 53.2009 152.4767 29273.0687 -96.4188 -28.1716
ENERGY: 600000 4.9114 13.6592 4.8007 0.0000 -10310.1151 1359.3440 0.0000 0.0000 1704.9221 -7222.4776 295.1345 -8927.3997 -7295.2950 297.3675 -202.2616 -114.4449 30040.6406 -190.0813 -118.1362
ENERGY: 900000 2.3166 11.0999 3.0581 0.0000 -10453.6615 1423.4399 0.0000 0.0000 1726.5361 -7287.2108 298.8760 -9013.7469 -7298.9759 297.2679 192.5010 242.5193 29911.4386 -120.0384 -46.7032
ENERGY: 1200000 3.4488 19.3588 5.7123 0.0000 -10521.1291 1424.0041 0.0000 0.0000 1741.7214 -7326.8838 301.5047 -9068.6052 -7311.9131 296.7295 -110.7404 -17.0270 29904.1655 -176.6382 -100.3195
ENERGY: 1500000 2.0560 16.7216 4.6403 0.0000 -10429.5001 1408.9571 0.0000 0.0000 1752.5343 -7244.5907 303.3765 -8997.1250 -7304.9875 297.8481 -13.2420 94.0598 29957.3399 -114.4350 -41.2720
TCL: Running FEP window  14: Lambda1 0.65   Lambda2 0.7000000000000001 [dLambda 0.050000000000000044]
TCL: Setting parameter firsttimestep to 0
TCL: Setting parameter alchLambda to 0.65
Info: NONBONDED TABLE R-SQUARED SPACING: 0.0625
Info: NONBONDED TABLE SIZE: 705 POINTS
TCL: Setting parameter alchLambda2 to 0.7000000000000001
Info: NONBONDED TABLE R-SQUARED SPACING: 0.0625
Info: NONBONDED TABLE SIZE: 705 POINTS
TCL: Running for 1500000 steps
ETITLE: TS BOND ANGLE DIHED IMPRP ELECT VDW BOUNDARY MISC KINETIC TOTAL TEMP POTENTIAL TOTALAVG TEMPAVG PRESSURE GPRESSURE VOLUME PRESSAVG GPRESSAVG
ENERGY: 0 2.0560 16.7216 4.6403 0.0000 -10430.3404 1408.8919 0.0000 0.0000 1751.6751 -7246.3554 303.2277 -8998.0305 -7246.3554 303.2277 4.5533 99.6783 29957.3399 4.5533 99.6783
ENERGY: 300000 3.6493 10.0926 4.8166 0.0000 -10404.2582 1320.1346 0.0000 0.0000 1696.7005 -7368.8645 293.7112 -9065.5651 -7276.5214 301.0352 -752.6578 -742.8375 29817.7798 -343.7051 -271.8695
ENERGY: 600000 4.0954 11.1629 7.2508 0.0000 -10344.6349 1340.5427 0.0000 0.0000 1706.9654 -7274.6176 295.4882 -8981.5830 -7294.9980 299.2395 -612.5397 -534.8733 30384.7869 -433.1322 -359.2200
ENERGY: 900000 1.3957 16.4961 3.9520 0.0000 -10417.3424 1407.5506 0.0000 0.0000 1682.8497 -7305.0982 291.3136 -8987.9480 -7297.7224 298.7339 191.6998 176.9823 29961.6277 -234.8397 -170.3050
ENERGY: 1200000 1.8883 11.9003 6.6462 0.0000 -10438.5064 1410.7990 0.0000 0.0000 1773.8092 -7233.4633 307.0593 -9007.2725 -7299.2478 300.0819 -111.4727 -24.8073 30008.8721 -214.3821 -145.2729
ENERGY: 1500000 2.1489 11.0017 3.9212 0.0000 -10439.7177 1361.0663 0.0000 0.0000 1774.5713 -7287.0084 307.1912 -9061.5796 -7301.0221 300.3411 -309.8841 -189.2731 29421.5924 -251.6977 -173.8499
TCL: Running FEP window  15: Lambda1 0.7000000000000001 Lambda2 0.7500000000000001 [dLambda 0.050000000000000044]
TCL: Setting parameter firsttimestep to 0
TCL: Setting parameter alchLambda to 0.7000000000000001
Info: NONBONDED TABLE R-SQUARED SPACING: 0.0625
Info: NONBONDED TABLE SIZE: 705 POINTS
TCL: Setting parameter alchLambda2 to 0.7500000000000001
Info: NONBONDED TABLE R-SQUARED SPACING: 0.0625
Info: NONBONDED TABLE SIZE: 705 POINTS
TCL: Running for 1500000 steps
ETITLE: TS BOND ANGLE DIHED IMPRP ELECT VDW BOUNDARY MISC KINETIC TOTAL TEMP POTENTIAL TOTALAVG TEMPAVG PRESSURE GPRESSURE VOLUME PRESSAVG GPRESSAVG
ENERGY: 0 2.1489 11.0016 3.9212 0.0000 -10440.7800 1363.7535 0.0000 0.0000 1773.7011 -7286.2536 307.0406 -9059.9547 -7286.2536 307.0406 -238.7566 -146.4029 29421.5924 -238.7566 -146.4029
ENERGY: 300000 3.5821 15.4904 5.8575 0.0000 -10487.6386 1396.4550 0.0000 0.0000 1744.3315 -7321.9222 301.9565 -9066.2536 -7316.8734 302.0976 -213.0322 -136.8512 30005.6501 -443.1173 -352.3705
ENERGY: 600000 1.9588 19.1291 5.2434 0.0000 -10392.8563 1337.0609 0.0000 0.0000 1749.2809 -7280.1833 302.8133 -9029.4642 -7311.1297 301.9084 -491.2599 -480.9547 29922.1389 -463.9705 -377.7794
ENERGY: 900000 2.5097 6.8434 6.3977 0.0000 -10591.3795 1441.0071 0.0000 0.0000 1775.2175 -7359.4042 307.3031 -9134.6216 -7311.1874 302.6706 10.3172 124.4438 29932.6439 -436.6496 -346.6261
ENERGY: 1200000 3.6395 12.3292 3.5835 0.0000 -10418.7387 1411.7901 0.0000 0.0000 1751.1671 -7236.2293 303.1398 -8987.3964 -7308.4088 302.6581 196.5703 257.3036 29715.8256 -339.7098 -251.6420
ENERGY: 1500000 3.9719 12.3040 3.2527 0.0000 -10317.2786 1375.8342 0.0000 0.0000 1699.4425 -7222.4732 294.1859 -8921.9157 -7304.5097 302.5557 288.0038 342.3488 29463.3377 -281.5130 -194.0535
TCL: Running FEP window  16: Lambda1 0.7500000000000001 Lambda2 0.8000000000000002 [dLambda 0.050000000000000044]
TCL: Setting parameter firsttimestep to 0
TCL: Setting parameter alchLambda to 0.7500000000000001
Info: NONBONDED TABLE R-SQUARED SPACING: 0.0625
Info: NONBONDED TABLE SIZE: 705 POINTS
TCL: Setting parameter alchLambda2 to 0.8000000000000002
Info: NONBONDED TABLE R-SQUARED SPACING: 0.0625
Info: NONBONDED TABLE SIZE: 705 POINTS
TCL: Running for 1500000 steps
ETITLE: TS BOND ANGLE DIHED IMPRP ELECT VDW BOUNDARY MISC KINETIC TOTAL TEMP POTENTIAL TOTALAVG TEMPAVG PRESSURE GPRESSURE VOLUME PRESSAVG GPRESSAVG
ENERGY: 0 3.9719 12.3040 3.2527 0.0000 -10317.9350 1376.7686 0.0000 0.0000 1698.5549 -7223.0829 294.0322 -8921.6378 -7223.0829 294.0322 267.3213 368.3603 29463.3377 267.3213 368.3603
ENERGY: 300000 3.6416 16.9481 7.1878 0.0000 -10395.1559 1395.0628 0.0000 0.0000 1691.9530 -7280.3627 292.8894 -8972.3157 -7269.2941 297.2716 -64.9616 99.0195 29832.8204 -88.3800 8.9797
ENERGY: 600000 2.9922 11.1452 8.8218 0.0000 -10452.9064 1399.9001 0.0000 0.0000 1735.4257 -7294.6216 300.4148 -9030.0472 -7289.5014 297.7623 -20.3061 112.0180 29860.3237 -157.4772 -71.7499
ENERGY: 900000 4.9334 13.4721 4.4614 0.0000 -10500.8384 1464.0619 0.0000 0.0000 1771.7489 -7242.1606 306.7027 -9013.9095 -7294.4097 297.5491 456.9561 551.9816 29925.9886 32.6806 108.0765
ENERGY: 1200000 1.8974 15.3196 5.4717 0.0000 -10366.4640 1381.9251 0.0000 0.0000 1719.1804 -7242.6698 297.6027 -8961.8502 -7295.1115 297.2639 138.3988 143.8971 29932.4474 -35.2293 35.7440
ENERGY: 1500000 3.5065 7.3202 4.6135 0.0000 -10553.7928 1468.5884 0.0000 0.0000 1730.7593 -7339.0049 299.6071 -9069.7642 -7306.2389 297.0912 529.7435 645.5823 29568.8116 71.8122 141.5109
TCL: Running FEP window  17: Lambda1 0.8000000000000002 Lambda2 0.8500000000000002 [dLambda 0.050000000000000044]
TCL: Setting parameter firsttimestep to 0
TCL: Setting parameter alchLambda to 0.8000000000000002
Info: NONBONDED TABLE R-SQUARED SPACING: 0.0625
Info: NONBONDED TABLE SIZE: 705 POINTS
TCL: Setting parameter alchLambda2 to 0.8500000000000002
Info: NONBONDED TABLE R-SQUARED SPACING: 0.0625
Info: NONBONDED TABLE SIZE: 705 POINTS
TCL: Running for 1500000 steps
ETITLE: TS BOND ANGLE DIHED IMPRP ELECT VDW BOUNDARY MISC KINETIC TOTAL TEMP POTENTIAL TOTALAVG TEMPAVG PRESSURE GPRESSURE VOLUME PRESSAVG GPRESSAVG
ENERGY: 0 3.5065 7.3202 4.6135 0.0000 -10554.8620 1468.3988 0.0000 0.0000 1729.9440 -7341.0790 299.4659 -9071.0230 -7341.0790 299.4659 563.0790 654.6100 29568.8116 563.0790 654.6100
ENERGY: 300000 2.4932 14.7888 6.2171 0.0000 -10562.6574 1470.0138 0.0000 0.0000 1735.3534 -7333.7911 300.4023 -9069.1444 -7317.2178 302.4955 558.8058 648.6423 29710.4046 245.7747 337.3086
ENERGY: 600000 1.6251 13.7281 4.0369 0.0000 -10587.5151 1458.6247 0.0000 0.0000 1724.5384 -7384.9619 298.5302 -9109.5003 -7329.8311 301.4555 432.5193 491.8316 29376.1676 260.0102 336.8199
ENERGY: 900000 2.5489 16.2192 5.5546 0.0000 -10477.8108 1410.4424 0.0000 0.0000 1694.6966 -7348.3492 293.3643 -9043.0458 -7328.3784 299.9666 -94.6470 -50.3686 29816.0356 187.3740 258.7836
ENERGY: 1200000 1.9988 16.7558 5.5085 0.0000 -10383.6607 1407.0252 0.0000 0.0000 1732.5365 -7219.8358 299.9147 -8952.3724 -7316.8390 299.6493 562.2511 610.7511 29582.3653 152.2380 222.9571
ENERGY: 1500000 2.5623 15.7055 4.7784 0.0000 -10510.4293 1402.5507 0.0000 0.0000 1723.1418 -7361.6907 298.2884 -9084.8324 -7320.0193 299.1697 -149.4968 -53.6056 29773.5071 70.1742 138.8495
TCL: Running FEP window  18: Lambda1 0.8500000000000002 Lambda2 0.9000000000000002 [dLambda 0.050000000000000044]
TCL: Setting parameter firsttimestep to 0
TCL: Setting parameter alchLambda to 0.8500000000000002
Info: NONBONDED TABLE R-SQUARED SPACING: 0.0625
Info: NONBONDED TABLE SIZE: 705 POINTS
TCL: Setting parameter alchLambda2 to 0.9000000000000002
Info: NONBONDED TABLE R-SQUARED SPACING: 0.0625
Info: NONBONDED TABLE SIZE: 705 POINTS
TCL: Running for 1500000 steps
ETITLE: TS BOND ANGLE DIHED IMPRP ELECT VDW BOUNDARY MISC KINETIC TOTAL TEMP POTENTIAL TOTALAVG TEMPAVG PRESSURE GPRESSURE VOLUME PRESSAVG GPRESSAVG
ENERGY: 0 2.5623 15.7055 4.7784 0.0000 -10511.5167 1402.2256 0.0000 0.0000 1722.2493 -7363.9955 298.1339 -9086.2448 -7363.9955 298.1339 -123.3043 -39.3638 29773.5071 -123.3043 -39.3638
ENERGY: 300000 1.5437 11.1945 3.5942 0.0000 -10456.0121 1357.7326 0.0000 0.0000 1764.2742 -7317.6728 305.4087 -9081.9470 -7343.0891 298.2889 -464.4942 -410.7120 30154.3997 -192.1697 -131.4305
ENERGY: 600000 2.6479 10.9920 7.0784 0.0000 -10606.5004 1480.7916 0.0000 0.0000 1740.2928 -7364.6977 301.2574 -9104.9905 -7334.8776 299.8271 439.2001 503.6664 29900.6032 -140.1355 -75.4355
ENERGY: 900000 1.0541 11.7974 5.2229 0.0000 -10379.5464 1364.4773 0.0000 0.0000 1725.7723 -7271.2225 298.7438 -8996.9948 -7331.0905 299.2283 -147.0565 -165.2307 29998.4216 -217.2462 -162.0409
ENERGY: 1200000 5.0834 9.2417 4.1787 0.0000 -10590.2277 1492.6034 0.0000 0.0000 1700.7161 -7378.4046 294.4063 -9079.1206 -7326.7781 299.0703 480.7482 552.7318 29764.4715 -68.2204 -8.7571
ENERGY: 1500000 1.6924 12.7868 4.6970 0.0000 -10476.3474 1394.6361 0.0000 0.0000 1781.2099 -7281.3251 308.3404 -9062.5350 -7318.1130 300.0498 27.6660 106.9776 29782.9512 -89.4970 -34.7681
TCL: Running FEP window  19: Lambda1 0.9000000000000002 Lambda2 0.9500000000000003 [dLambda 0.050000000000000044]
TCL: Setting parameter firsttimestep to 0
TCL: Setting parameter alchLambda to 0.9000000000000002
Info: NONBONDED TABLE R-SQUARED SPACING: 0.0625
Info: NONBONDED TABLE SIZE: 705 POINTS
TCL: Setting parameter alchLambda2 to 0.9500000000000003
Info: NONBONDED TABLE R-SQUARED SPACING: 0.0625
Info: NONBONDED TABLE SIZE: 705 POINTS
TCL: Running for 1500000 steps
ETITLE: TS BOND ANGLE DIHED IMPRP ELECT VDW BOUNDARY MISC KINETIC TOTAL TEMP POTENTIAL TOTALAVG TEMPAVG PRESSURE GPRESSURE VOLUME PRESSAVG GPRESSAVG
ENERGY: 0 1.6924 12.7868 4.6970 0.0000 -10476.8130 1394.5938 0.0000 0.0000 1780.3407 -7282.7023 308.1900 -9063.0430 -7282.7023 308.1900 58.3697 125.9649 29782.9512 58.3697 125.9649
ENERGY: 300000 3.4713 10.9252 4.6270 0.0000 -10429.5216 1358.0336 0.0000 0.0000 1706.7063 -7345.7582 295.4433 -9052.4645 -7319.6158 300.0056 -365.1100 -255.2152 29814.6581 117.4735 194.3831
ENERGY: 600000 1.7665 18.5623 7.1173 0.0000 -10459.0415 1414.2849 0.0000 0.0000 1720.0845 -7297.2260 297.7592 -9017.3105 -7325.4965 298.5025 185.5902 232.6769 29881.3408 103.1707 172.7827
ENERGY: 900000 3.0499 13.4507 6.8187 0.0000 -10342.8894 1326.6443 0.0000 0.0000 1700.5417 -7292.3841 294.3762 -8992.9258 -7323.6036 298.3626 -363.8710 -293.5661 29762.5818 122.3317 196.1963
ENERGY: 1200000 2.2166 9.3405 5.4507 0.0000 -10498.5309 1428.2261 0.0000 0.0000 1667.3668 -7385.9301 288.6333 -9053.2969 -7316.1998 297.7501 407.5328 480.2097 29634.9144 59.5338 130.3792
ENERGY: 1500000 2.6194 11.8423 5.4991 0.0000 -10365.9556 1333.5531 0.0000 0.0000 1739.5220 -7272.9199 301.1239 -9012.4418 -7316.2075 298.4902 -367.8318 -260.7707 29647.2842 14.0146 82.4635
TCL: Running FEP window  20: Lambda1 0.9500000000000003 Lambda2 1.0    [dLambda 0.04999999999999971]
TCL: Setting parameter firsttimestep to 0
TCL: Setting parameter alchLambda to 0.9500000000000003
Info: NONBONDED TABLE R-SQUARED SPACING: 0.0625
Info: NONBONDED TABLE SIZE: 705 POINTS
TCL: Setting parameter alchLambda2 to 1.0
Info: NONBONDED TABLE R-SQUARED SPACING: 0.0625
Info: NONBONDED TABLE SIZE: 705 POINTS
TCL: Running for 1500000 steps
ETITLE: TS BOND ANGLE DIHED IMPRP ELECT VDW BOUNDARY MISC KINETIC TOTAL TEMP POTENTIAL TOTALAVG TEMPAVG PRESSURE GPRESSURE VOLUME PRESSAVG GPRESSAVG
ENERGY: 0 2.6194 11.8423 5.4991 0.0000 -10366.4659 1334.4114 0.0000 0.0000 1738.6916 -7273.4021 300.9802 -9012.0938 -7273.4021 300.9802 -312.5510 -230.0760 29647.2842 -312.5510 -230.0760
ENERGY: 300000 2.0849 18.5211 7.9149 0.0000 -10419.2968 1418.2828 0.0000 0.0000 1710.3773 -7262.1159 296.0788 -8972.4932 -7260.7351 303.2470 455.9201 419.7010 30139.8495 328.9367 378.4035
ENERGY: 600000 2.1058 15.0288 6.9316 0.0000 -10534.0606 1419.4031 0.0000 0.0000 1738.7409 -7351.8505 300.9887 -9090.5913 -7279.6844 303.6041 164.5449 216.4017 29900.1536 75.6578 126.8005
ENERGY: 900000 3.0561 15.3994 6.7597 0.0000 -10411.6873 1326.8598 0.0000 0.0000 1708.1492 -7351.4630 295.6931 -9059.6122 -7305.2170 300.5977 -650.0639 -565.2309 29873.6636 -37.6076 24.7901
ENERGY: 1200000 1.5056 13.9165 5.4084 0.0000 -10468.1272 1433.6900 0.0000 0.0000 1745.2427 -7268.3639 302.1142 -9013.6066 -7298.4884 300.3191 371.7688 403.0527 30076.2396 -79.7489 -12.7267
ENERGY: 1500000 4.7009 8.1506 5.4287 0.0000 -10530.5537 1392.8356 0.0000 0.0000 1736.9544 -7382.4835 300.6795 -9119.4379 -7300.5162 300.4878 -353.5680 -246.4408 30029.1439 -46.6830 16.6193
TCL: Exiting due to exit command.
