Info: SIMULATION PARAMETERS:
Info: TIMESTEP               2
Info: NUMBER OF STEPS        0
Info: STEPS PER CYCLE        10
Info: PERIODIC CELL BASIS 1  30.8455 0 0
Info: PERIODIC CELL BASIS 2  0 30.0644 0
Info: PERIODIC CELL BASIS 3  0 0 32.7931
Info: PERIODIC CELL CENTER   0 0 0
Info: WRAPPING WATERS AROUND PERIODIC BOUNDARIES ON OUTPUT.
Info: WRAPPING ALL CLUSTERS AROUND PERIODIC BOUNDARIES ON OUTPUT.
Info: FIRST LDB TIMESTEP     50
Info: LAST LDB TIMESTEP     -1
Info: HOM BACKGROUND SCALING 1
Info: PME BACKGROUND SCALING 1
Info: MIN ATOMS PER PATCH    40
Info: EMPTY PATCH LOAD       40 ATOMS
Info: VELOCITY FILE          mobley_6896128_equil.vel
Info: CENTER OF MASS MOVING INITIALLY? NO
Info: DIELECTRIC             1
Info: EXCLUDE                SCALED ONE-FOUR
Info: 1-4 ELECTROSTATICS SCALED BY 0.833333
Info: MODIFIED 1-4 VDW PARAMETERS WILL BE USED
Info: DCD FILENAME           mobley_6896128_prod.dcd
Info: DCD FREQUENCY          100000
Info: DCD FIRST STEP         100000
Info: DCD FILE WILL CONTAIN UNIT CELL DATA
Info: XST FILENAME           mobley_6896128_prod.xst
Info: XST FREQUENCY          100000
Info: NO VELOCITY DCD OUTPUT
Info: NO FORCE DCD OUTPUT
Info: OUTPUT FILENAME        mobley_6896128_prod
Info: BINARY OUTPUT FILES WILL BE USED
Info: RESTART FILENAME       mobley_6896128_prod.restart
Info: RESTART FREQUENCY      100000
Info: BINARY RESTART FILES WILL BE USED
Info: CUTOFF                 9
Info: PAIRLIST DISTANCE      11
Info: PAIRLIST SHRINK RATE   0.01
Info: PAIRLIST GROW RATE     0.01
Info: PAIRLIST TRIGGER       0.3
Info: PAIRLISTS PER CYCLE    2
Info: PAIRLISTS ENABLED
Info: MARGIN                 2
Info: HYDROGEN GROUP CUTOFF  2.5
Info: PATCH DIMENSION        15.5
Info: ENERGY OUTPUT STEPS    100000
Info: ENERGY EVALUATION STEPS    100000
Info: OUTPUT ENERGY PRECISION 4
Info: CROSSTERM ENERGY INCLUDED IN DIHEDRAL
Info: TIMING OUTPUT STEPS    1000000
Info: PRESSURE OUTPUT STEPS  100000
Info: ALCHEMICAL FEP ON
Info: FEP CURRENT LAMBDA VALUE     1
Info: FEP COMPARISON LAMBDA VALUE  0.95
Info: FEP INTRA-ALCHEMICAL NON-BONDED INTERACTIONS WILL BE RETAINED
Info: FEP INTRA-ALCHEMICAL BONDED INTERACTIONS WILL BE RETAINED
Info: FEP VDW SHIFTING COEFFICIENT 5
Info: FEP ELEC. ACTIVE FOR ANNIHILATED PARTICLES BETWEEN LAMBDA = 0 AND LAMBDA = 0.5
Info: FEP ELEC. ACTIVE FOR EXNIHILATED PARTICLES BETWEEN LAMBDA = 0.5 AND LAMBDA = 1
Info: FEP VDW ACTIVE FOR ANNIHILATED PARTICLES BETWEEN LAMBDA = 0 AND LAMBDA = 1
Info: FEP VDW ACTIVE FOR EXNIHILATED PARTICLES BETWEEN LAMBDA = 0 AND LAMBDA = 1
Info: FEP BOND ACTIVE FOR ANNIHILATED PARTICLES BETWEEN LAMBDA = 1 AND LAMBDA = 1
Info: FEP BOND ACTIVE FOR EXNIHILATED PARTICLES BETWEEN LAMBDA = 0 AND LAMBDA = 0
Info: LANGEVIN DYNAMICS ACTIVE
Info: LANGEVIN TEMPERATURE   300
Info: LANGEVIN USING BBK INTEGRATOR
Info: LANGEVIN DAMPING COEFFICIENT IS 1 INVERSE PS
Info: LANGEVIN DYNAMICS APPLIED TO HYDROGENS
Info: LANGEVIN PISTON PRESSURE CONTROL ACTIVE
Info:        TARGET PRESSURE IS 1.01325 BAR
Info:     OSCILLATION PERIOD IS 50 FS
Info:             DECAY TIME IS 25 FS
Info:     PISTON TEMPERATURE IS 300 K
Info:       PRESSURE CONTROL IS GROUP-BASED
Info:    INITIAL STRAIN RATE IS -0.000244007 -0.000244007 -0.000244007
Info:       CELL FLUCTUATION IS ISOTROPIC
Info: PARTICLE MESH EWALD (PME) ACTIVE
Info: PME TOLERANCE               1e-06
Info: PME EWALD COEFFICIENT       0.348832
Info: PME INTERPOLATION ORDER     4
Info: PME GRID DIMENSIONS         32 32 36
Info: PME MAXIMUM GRID SPACING    1
Info: PME CALCULATION WILL BE PERFORMED ON GPU
Info: FULL ELECTROSTATIC EVALUATION FREQUENCY      2
Info: USING VERLET I (r-RESPA) MTS SCHEME.
Info: C1 SPLITTING OF LONG RANGE ELECTROSTATICS
Info: PLACING ATOMS IN PATCHES BY HYDROGEN GROUPS
Info: RIGID BONDS TO HYDROGEN : ALL
Info:         ERROR TOLERANCE : 1e-08
Info:          MAX ITERATIONS : 100
Info: RIGID WATER USING SETTLE ALGORITHM
Info: RANDOM NUMBER SEED     1743988010
Info: USE HYDROGEN BONDS?    NO
Info: Using AMBER format force field!
Info: AMBER PARM FILE        mobley_6896128.prmtop
Info: COORDINATE PDB         mobley_6896128.pdb
Info: Exclusions will be read from PARM file!
Info: SCNB (VDW SCALING)     2
Info: USING ARITHMETIC MEAN TO COMBINE L-J SIGMA PARAMETERS
Info: BINARY COORDINATES     mobley_6896128_equil.coor
Info: SUMMARY OF PARAMETERS:
Info: 4 BONDS
Info: 3 ANGLES
Info:   3 HARMONIC
Info:   0 COSINE-BASED
Info: 5 DIHEDRAL
Info: 0 IMPROPER
Info: 0 CROSSTERM
Info: 0 VDW
Info: 10 VDW_PAIRS
Info: 0 NBTHOLE_PAIRS
Info: To read alchdata from file: mobley_6896128.pdb
Info: To read alchflag data from column: 5
Info: STRUCTURE SUMMARY:
Info: 2960 ATOMS
Info: 2959 BONDS
Info: 48 ANGLES
Info: 75 DIHEDRALS
Info: 0 IMPROPERS
Info: 0 CROSSTERMS
Info: 3070 EXCLUSIONS
Info: 2952 RIGID BONDS
Info: ALCH: 0 ATOMS TO DISAPPEAR IN FINAL STATE
Info: ALCH: 26 ATOMS TO APPEAR IN FINAL STATE
Info: 5928 DEGREES OF FREEDOM
Info: 986 HYDROGEN GROUPS
Info: 4 ATOMS IN LARGEST HYDROGEN GROUP
Info: 986 MIGRATION GROUPS
Info: 4 ATOMS IN LARGEST MIGRATION GROUP
Info: TOTAL MASS = 17733.9 amu
Info: TOTAL CHARGE = 0.000100002 e
Info: MASS DENSITY = 0.968356 g/cm^3
Info: ATOM DENSITY = 0.0973339 atoms/A^3
Info: ADDED 0 IMPLICIT EXCLUSIONS
Info: NONBONDED TABLE R-SQUARED SPACING: 0.0625
Info: NONBONDED TABLE SIZE: 705 POINTS
Info: REMOVING COM VELOCITY -0.137963 -0.0406049 -0.156633
Info: Use 3D box decompostion in PME FFT.
Info: Updated CUDA force table with 4096 elements.
Info: Updated CUDA LJ table with 4 x 4 elements.
Info: Found 29 unique exclusion lists needing 100 bytes
TCL: Running for 1500000 steps
ETITLE: TS BOND ANGLE DIHED IMPRP ELECT VDW BOUNDARY MISC KINETIC TOTAL TEMP POTENTIAL TOTALAVG TEMPAVG PRESSURE GPRESSURE VOLUME PRESSAVG GPRESSAVG
ENERGY: 0 4.4790 12.0535 5.5294 0.0000 -10749.4912 1451.5014 0.0000 0.0000 1791.2346 -7484.6933 304.1128 -9275.9280 -7484.6933 304.1128 -176.2734 -96.5629 30410.7824 -176.2734 -96.5629
ENERGY: 300000 4.0770 12.4025 3.7357 0.0000 -10639.2037 1422.8313 0.0000 0.0000 1747.2110 -7448.9462 296.6385 -9196.1571 -7473.1687 298.1115 220.7430 271.3491 30455.6353 111.1372 176.3363
ENERGY: 600000 2.1930 13.3160 7.0915 0.0000 -10681.7300 1417.4619 0.0000 0.0000 1763.0106 -7478.6569 299.3210 -9241.6675 -7453.3926 300.3992 2.8539 -11.3999 30329.9480 -11.2949 42.7487
ENERGY: 900000 2.3955 10.6168 6.0139 0.0000 -10581.3477 1409.2889 0.0000 0.0000 1753.1666 -7399.8661 297.6497 -9153.0327 -7447.2896 300.4483 -131.8221 -77.1329 30806.9022 -37.7119 18.6333
ENERGY: 1200000 1.6156 9.9796 5.3494 0.0000 -10641.7298 1444.0762 0.0000 0.0000 1724.3698 -7456.3392 292.7606 -9180.7090 -7445.7013 299.5211 150.9055 261.0015 30688.1385 -6.4846 58.0323
ENERGY: 1500000 4.7373 15.8493 6.2341 0.0000 -10589.6586 1394.7158 0.0000 0.0000 1765.1289 -7402.9932 299.6806 -9168.1222 -7445.8707 299.4883 -226.6670 -203.9887 30604.0470 -20.3511 37.6756
TCL: Running FEP window   2: Lambda1 0.95   Lambda2 0.8999999999999999 [dLambda -0.050000000000000044]
TCL: Setting parameter firsttimestep to 0
TCL: Setting parameter alchLambda to 0.95
Info: NONBONDED TABLE R-SQUARED SPACING: 0.0625
Info: NONBONDED TABLE SIZE: 705 POINTS
TCL: Setting parameter alchLambda2 to 0.8999999999999999
Info: NONBONDED TABLE R-SQUARED SPACING: 0.0625
Info: NONBONDED TABLE SIZE: 705 POINTS
TCL: Running for 1500000 steps
ETITLE: TS BOND ANGLE DIHED IMPRP ELECT VDW BOUNDARY MISC KINETIC TOTAL TEMP POTENTIAL TOTALAVG TEMPAVG PRESSURE GPRESSURE VOLUME PRESSAVG GPRESSAVG
ENERGY: 0 4.7373 15.8493 6.2341 0.0000 -10589.6102 1395.2657 0.0000 0.0000 1764.2662 -7403.2577 299.5341 -9167.5238 -7403.2577 299.5341 -296.4334 -212.8560 30604.0470 -296.4334 -212.8560
ENERGY: 300000 1.8309 14.4175 4.8380 0.0000 -10746.1404 1440.8159 0.0000 0.0000 1714.5689 -7569.6693 291.0966 -9284.2382 -7449.4349 299.6383 -175.7157 -142.5101 30327.4260 153.2586 208.5460
ENERGY: 600000 4.1715 10.1911 4.3631 0.0000 -10662.5120 1469.1966 0.0000 0.0000 1780.7679 -7393.8218 302.3357 -9174.5897 -7439.7338 300.6690 350.0718 367.8111 30492.2607 189.4538 229.4057
ENERGY: 900000 5.9627 14.5193 3.7155 0.0000 -10547.8010 1358.4277 0.0000 0.0000 1775.8252 -7389.3506 301.4966 -9165.1759 -7437.3646 301.3735 -446.8858 -447.1950 30547.7066 57.5123 95.9847
ENERGY: 1200000 3.2169 11.2149 5.2222 0.0000 -10543.1219 1321.4332 0.0000 0.0000 1793.5870 -7408.4476 304.5122 -9202.0346 -7440.8607 300.8809 -672.6484 -659.6196 30440.2598 -0.8238 34.3408
ENERGY: 1500000 1.6784 9.9719 6.1577 0.0000 -10730.5911 1465.2542 0.0000 0.0000 1770.2397 -7477.2891 300.5483 -9247.5288 -7445.4854 300.6801 164.1612 183.7823 30731.6092 23.2885 55.5314
TCL: Running FEP window   3: Lambda1 0.8999999999999999 Lambda2 0.8499999999999999 [dLambda -0.050000000000000044]
TCL: Setting parameter firsttimestep to 0
TCL: Setting parameter alchLambda to 0.8999999999999999
Info: NONBONDED TABLE R-SQUARED SPACING: 0.0625
Info: NONBONDED TABLE SIZE: 705 POINTS
TCL: Setting parameter alchLambda2 to 0.8499999999999999
Info: NONBONDED TABLE R-SQUARED SPACING: 0.0625
Info: NONBONDED TABLE SIZE: 705 POINTS
TCL: Running for 1500000 steps
ETITLE: TS BOND ANGLE DIHED IMPRP ELECT VDW BOUNDARY MISC KINETIC TOTAL TEMP POTENTIAL TOTALAVG TEMPAVG PRESSURE GPRESSURE VOLUME PRESSAVG GPRESSAVG
ENERGY: 0 1.6784 9.9719 6.1577 0.0000 -10730.6249 1465.3883 0.0000 0.0000 1769.3783 -7478.0502 300.4020 -9247.4285 -7478.0502 300.4020 88.3304 171.3559 30731.6092 88.3304 171.3559
ENERGY: 300000 6.0371 10.3280 3.5058 0.0000 -10596.1340 1428.4241 0.0000 0.0000 1753.7797 -7394.0593 297.7537 -9147.8390 -7397.9578 303.5076 178.2687 266.4666 30459.8755 115.5793 190.7254
ENERGY: 600000 6.8437 12.5574 5.5688 0.0000 -10762.1104 1487.0724 0.0000 0.0000 1788.0791 -7461.9889 303.5770 -9250.0680 -7430.6140 300.7700 302.6744 344.3112 30465.4479 147.5627 213.2158
ENERGY: 900000 2.5476 12.5972 4.9350 0.0000 -10686.4984 1421.1965 0.0000 0.0000 1773.1989 -7472.0232 301.0507 -9245.2221 -7446.1703 299.8421 -116.6701 -53.9799 30312.6762 101.8304 171.8259
ENERGY: 1200000 4.7084 8.8624 3.9670 0.0000 -10692.1890 1448.1909 0.0000 0.0000 1776.9330 -7449.5272 301.6847 -9226.4602 -7452.4002 300.0315 -44.9958 25.5700 30733.5274 61.9060 129.4900
ENERGY: 1500000 2.5302 13.7949 3.8194 0.0000 -10757.4892 1495.5516 0.0000 0.0000 1764.1022 -7477.6909 299.5063 -9241.7931 -7458.4082 301.0638 359.1440 388.5637 30437.6899 95.3145 162.7074
TCL: Running FEP window   4: Lambda1 0.8499999999999999 Lambda2 0.7999999999999998 [dLambda -0.050000000000000044]
TCL: Setting parameter firsttimestep to 0
TCL: Setting parameter alchLambda to 0.8499999999999999
Info: NONBONDED TABLE R-SQUARED SPACING: 0.0625
Info: NONBONDED TABLE SIZE: 705 POINTS
TCL: Setting parameter alchLambda2 to 0.7999999999999998
Info: NONBONDED TABLE R-SQUARED SPACING: 0.0625
Info: NONBONDED TABLE SIZE: 705 POINTS
TCL: Running for 1500000 steps
ETITLE: TS BOND ANGLE DIHED IMPRP ELECT VDW BOUNDARY MISC KINETIC TOTAL TEMP POTENTIAL TOTALAVG TEMPAVG PRESSURE GPRESSURE VOLUME PRESSAVG GPRESSAVG
ENERGY: 0 2.5302 13.7949 3.8194 0.0000 -10757.4811 1496.1443 0.0000 0.0000 1763.2148 -7477.9775 299.3556 -9241.1923 -7477.9775 299.3556 295.3393 384.6754 30437.6899 295.3393 384.6754
ENERGY: 300000 2.0925 13.9968 4.9546 0.0000 -10744.9836 1454.8439 0.0000 0.0000 1786.2087 -7482.8872 303.2595 -9269.0958 -7461.4223 301.3613 -129.7916 -47.3639 30730.3528 5.3101 58.6732
ENERGY: 600000 1.6999 15.0679 3.6948 0.0000 -10734.8377 1418.9630 0.0000 0.0000 1818.6661 -7476.7459 308.7701 -9295.4120 -7474.2638 300.6900 -212.6064 -194.7690 30369.5595 -232.8232 -169.4776
ENERGY: 900000 2.1501 12.1239 5.5601 0.0000 -10869.8451 1559.4403 0.0000 0.0000 1765.1642 -7525.4065 299.6866 -9290.5707 -7488.0572 301.0964 945.8519 987.3635 29811.1464 -92.2056 -26.3944
ENERGY: 1200000 2.7878 15.1964 4.1697 0.0000 -10706.6737 1437.5053 0.0000 0.0000 1783.3082 -7463.7063 302.7670 -9247.0145 -7462.1732 301.5297 17.2914 89.7307 30170.3569 -16.3476 51.9456
ENERGY: 1500000 3.6140 12.6222 5.6594 0.0000 -10803.7220 1528.1891 0.0000 0.0000 1743.9231 -7509.7141 296.0803 -9253.6373 -7466.9266 301.2469 470.9669 553.7318 30447.4783 16.2733 85.2720
TCL: Running FEP window   5: Lambda1 0.7999999999999998 Lambda2 0.7499999999999998 [dLambda -0.050000000000000044]
TCL: Setting parameter firsttimestep to 0
TCL: Setting parameter alchLambda to 0.7999999999999998
Info: NONBONDED TABLE R-SQUARED SPACING: 0.0625
Info: NONBONDED TABLE SIZE: 705 POINTS
TCL: Setting parameter alchLambda2 to 0.7499999999999998
Info: NONBONDED TABLE R-SQUARED SPACING: 0.0625
Info: NONBONDED TABLE SIZE: 705 POINTS
TCL: Running for 1500000 steps
ETITLE: TS BOND ANGLE DIHED IMPRP ELECT VDW BOUNDARY MISC KINETIC TOTAL TEMP POTENTIAL TOTALAVG TEMPAVG PRESSURE GPRESSURE VOLUME PRESSAVG GPRESSAVG
ENERGY: 0 3.6141 12.6221 5.6594 0.0000 -10803.7203 1528.6764 0.0000 0.0000 1742.9943 -7510.1539 295.9226 -9253.1483 -7510.1539 295.9226 465.0485 548.0401 30447.4783 465.0485 548.0401
ENERGY: 300000 5.7667 15.6704 5.1611 0.0000 -10577.6203 1366.8193 0.0000 0.0000 1771.7002 -7412.5026 300.7963 -9184.2028 -7422.0717 301.5459 -551.7212 -495.7479 30630.6550 -13.9732 65.5028
ENERGY: 600000 3.5881 14.5527 3.5951 0.0000 -10721.0942 1431.7069 0.0000 0.0000 1750.9291 -7516.7223 297.2698 -9267.6514 -7442.2595 300.6727 -405.5347 -318.0101 30649.1128 -35.5877 46.3068
ENERGY: 900000 1.9333 11.3334 6.4675 0.0000 -10632.0312 1422.1417 0.0000 0.0000 1768.2736 -7421.8817 300.2145 -9190.1554 -7446.3446 300.4843 -59.8642 -29.6363 30686.2913 -30.4992 46.3579
ENERGY: 1200000 3.2670 8.9427 4.1294 0.0000 -10795.8437 1545.9078 0.0000 0.0000 1832.7656 -7400.8312 311.1638 -9233.5968 -7444.1111 301.3605 907.0203 977.4990 30200.2258 113.4569 180.7895
ENERGY: 1500000 1.1232 13.9890 3.5419 0.0000 -10641.8696 1399.5612 0.0000 0.0000 1745.9897 -7477.6647 296.4312 -9223.6544 -7440.1838 301.5965 -101.4319 -45.5360 30168.8053 46.4168 110.8829
TCL: Running FEP window   6: Lambda1 0.7499999999999998 Lambda2 0.6999999999999997 [dLambda -0.050000000000000044]
TCL: Setting parameter firsttimestep to 0
TCL: Setting parameter alchLambda to 0.7499999999999998
Info: NONBONDED TABLE R-SQUARED SPACING: 0.0625
Info: NONBONDED TABLE SIZE: 705 POINTS
TCL: Setting parameter alchLambda2 to 0.6999999999999997
Info: NONBONDED TABLE R-SQUARED SPACING: 0.0625
Info: NONBONDED TABLE SIZE: 705 POINTS
TCL: Running for 1500000 steps
ETITLE: TS BOND ANGLE DIHED IMPRP ELECT VDW BOUNDARY MISC KINETIC TOTAL TEMP POTENTIAL TOTALAVG TEMPAVG PRESSURE GPRESSURE VOLUME PRESSAVG GPRESSAVG
ENERGY: 0 1.1232 13.9890 3.5419 0.0000 -10641.8572 1399.8032 0.0000 0.0000 1745.1140 -7478.2860 296.2825 -9223.4000 -7478.2860 296.2825 -140.7216 -56.0758 30168.8053 -140.7216 -56.0758
ENERGY: 300000 1.9459 12.6325 3.9578 0.0000 -10657.0025 1425.9977 0.0000 0.0000 1794.1692 -7418.2994 304.6110 -9212.4686 -7415.6166 302.7206 -143.6175 -8.3951 30574.9942 -241.3049 -163.4060
ENERGY: 600000 3.7051 11.6766 3.7122 0.0000 -10650.4804 1401.7972 0.0000 0.0000 1764.2741 -7465.3153 299.5355 -9229.5893 -7459.9703 299.5702 -230.7212 -195.0099 30371.1250 -162.6020 -102.5130
ENERGY: 900000 2.3836 10.3604 6.2753 0.0000 -10629.2577 1412.4666 0.0000 0.0000 1776.1263 -7421.6456 301.5477 -9197.7718 -7456.4568 299.8565 -148.3108 -118.5695 30679.7420 -90.8028 -45.3377
ENERGY: 1200000 3.8274 11.2892 4.2995 0.0000 -10706.8551 1472.9721 0.0000 0.0000 1832.0941 -7382.3728 311.0498 -9214.4669 -7456.4708 299.5596 312.3484 342.6196 30823.2117 -85.5954 -47.0698
ENERGY: 1500000 1.2202 14.0739 5.6131 0.0000 -10689.4487 1406.0094 0.0000 0.0000 1766.2542 -7496.2778 299.8716 -9262.5321 -7456.8104 299.7912 -338.7873 -285.8125 30705.5978 -75.2986 -32.8110
TCL: Running FEP window   7: Lambda1 0.6999999999999997 Lambda2 0.6499999999999997 [dLambda -0.050000000000000044]
TCL: Setting parameter firsttimestep to 0
TCL: Setting parameter alchLambda to 0.6999999999999997
Info: NONBONDED TABLE R-SQUARED SPACING: 0.0625
Info: NONBONDED TABLE SIZE: 705 POINTS
TCL: Setting parameter alchLambda2 to 0.6499999999999997
Info: NONBONDED TABLE R-SQUARED SPACING: 0.0625
Info: NONBONDED TABLE SIZE: 705 POINTS
TCL: Running for 1500000 steps
ETITLE: TS BOND ANGLE DIHED IMPRP ELECT VDW BOUNDARY MISC KINETIC TOTAL TEMP POTENTIAL TOTALAVG TEMPAVG PRESSURE GPRESSURE VOLUME PRESSAVG GPRESSAVG
ENERGY: 0 1.2203 14.0739 5.6131 0.0000 -10689.4563 1406.1497 0.0000 0.0000 1765.3874 -7497.0120 299.7245 -9262.3994 -7497.0120 299.7245 -384.9913 -295.5922 30705.5978 -384.9913 -295.5922
ENERGY: 300000 0.9228 10.7439 5.9087 0.0000 -10656.4507 1443.0812 0.0000 0.0000 1748.7857 -7447.0085 296.9059 -9195.7942 -7463.6023 299.5858 195.7656 271.5260 30244.8905 26.9921 101.5285
ENERGY: 600000 2.7858 16.4425 4.3973 0.0000 -10492.6848 1342.0140 0.0000 0.0000 1771.7967 -7355.2486 300.8126 -9127.0452 -7460.2893 297.4571 -658.9530 -662.1047 31114.2266 -129.2522 -57.6277
ENERGY: 900000 3.0471 11.0148 4.4484 0.0000 -10586.2824 1331.2736 0.0000 0.0000 1751.0443 -7485.4541 297.2893 -9236.4985 -7475.6223 297.0495 -999.5824 -905.1032 30728.3823 -101.6517 -39.6205
ENERGY: 1200000 3.3448 15.1783 5.7388 0.0000 -10710.4587 1469.1034 0.0000 0.0000 1728.5648 -7488.5287 293.4728 -9217.0935 -7481.6634 297.4384 83.5053 187.3853 30711.8168 -127.6208 -60.4657
ENERGY: 1500000 1.5632 12.1678 5.2159 0.0000 -10537.8874 1349.0933 0.0000 0.0000 1833.8007 -7336.0465 311.3396 -9169.8472 -7472.4920 299.0491 -142.6503 -86.3734 29860.5391 -75.8074 -12.7028
TCL: Running FEP window   8: Lambda1 0.6499999999999997 Lambda2 0.5999999999999996 [dLambda -0.050000000000000044]
TCL: Setting parameter firsttimestep to 0
TCL: Setting parameter alchLambda to 0.6499999999999997
Info: NONBONDED TABLE R-SQUARED SPACING: 0.0625
Info: NONBONDED TABLE SIZE: 705 POINTS
TCL: Setting parameter alchLambda2 to 0.5999999999999996
Info: NONBONDED TABLE R-SQUARED SPACING: 0.0625
Info: NONBONDED TABLE SIZE: 705 POINTS
TCL: Running for 1500000 steps
ETITLE: TS BOND ANGLE DIHED IMPRP ELECT VDW BOUNDARY MISC KINETIC TOTAL TEMP POTENTIAL TOTALAVG TEMPAVG PRESSURE GPRESSURE VOLUME PRESSAVG GPRESSAVG
ENERGY: 0 1.5632 12.1678 5.2159 0.0000 -10537.9099 1349.3794 0.0000 0.0000 1832.9272 -7336.6564 311.1913 -9169.5836 -7336.6564 311.1913 -173.0514 -93.0266 29860.5391 -173.0514 -93.0266
ENERGY: 300000 2.2030 12.6563 4.4761 0.0000 -10606.4992 1399.0693 0.0000 0.0000 1807.8272 -7380.2672 306.9298 -9188.0944 -7401.7360 305.9356 -175.1760 -128.9993 30833.2814 -172.0650 -109.9462
ENERGY: 600000 4.1133 14.5159 4.2832 0.0000 -10808.9875 1544.9523 0.0000 0.0000 1772.0033 -7469.1195 300.8477 -9241.1228 -7418.7983 303.0368 557.2122 698.2619 30400.0754 12.2380 83.5126
ENERGY: 900000 4.6227 12.2003 5.5620 0.0000 -10517.0465 1302.7843 0.0000 0.0000 1774.5815 -7417.2956 301.2854 -9191.8771 -7429.1010 302.2559 -1125.8324 -1066.5003 30946.5246 -176.0677 -101.4451
ENERGY: 1200000 6.1549 10.3658 7.7785 0.0000 -10704.8897 1421.9288 0.0000 0.0000 1775.2089 -7483.4529 301.3920 -9258.6618 -7435.0507 302.3062 -58.7184 -0.5018 30335.9034 -128.5559 -55.9758
ENERGY: 1500000 1.0084 11.2545 6.0282 0.0000 -10555.0443 1370.2872 0.0000 0.0000 1763.3326 -7403.1335 299.3756 -9166.4660 -7434.0614 301.0756 -481.2714 -366.7998 30406.4702 -139.6224 -66.5035
TCL: Running FEP window   9: Lambda1 0.5999999999999996 Lambda2 0.5499999999999996 [dLambda -0.050000000000000044]
TCL: Setting parameter firsttimestep to 0
TCL: Setting parameter alchLambda to 0.5999999999999996
Info: NONBONDED TABLE R-SQUARED SPACING: 0.0625
Info: NONBONDED TABLE SIZE: 705 POINTS
TCL: Setting parameter alchLambda2 to 0.5499999999999996
Info: NONBONDED TABLE R-SQUARED SPACING: 0.0625
Info: NONBONDED TABLE SIZE: 705 POINTS
TCL: Running for 1500000 steps
ETITLE: TS BOND ANGLE DIHED IMPRP ELECT VDW BOUNDARY MISC KINETIC TOTAL TEMP POTENTIAL TOTALAVG TEMPAVG PRESSURE GPRESSURE VOLUME PRESSAVG GPRESSAVG
ENERGY: 0 1.0084 11.2545 6.0282 0.0000 -10555.1033 1370.3696 0.0000 0.0000 1762.4605 -7403.9821 299.2276 -9166.4426 -7403.9821 299.2276 -463.0382 -377.2100 30406.4702 -463.0382 -377.2100
ENERGY: 300000 1.9369 10.3402 3.6273 0.0000 -10636.3385 1418.4590 0.0000 0.0000 1763.6213 -7438.3538 299.4246 -9201.9751 -7478.2428 299.0194 133.2585 71.7107 30117.3551 23.6579 44.7680
ENERGY: 600000 1.0209 17.5522 3.8154 0.0000 -10551.1733 1362.1199 0.0000 0.0000 1731.3166 -7435.3484 293.9400 -9166.6649 -7457.2643 298.1786 -472.4190 -467.1413 30587.1208 -107.6221 -73.1613
ENERGY: 900000 2.3643 14.6293 4.8440 0.0000 -10760.7380 1463.6122 0.0000 0.0000 1763.3710 -7511.9173 299.3821 -9275.2883 -7471.4917 297.8307 113.2652 129.8401 30279.4530 -112.8448 -81.7908
ENERGY: 1200000 1.8298 12.0285 7.1385 0.0000 -10609.9070 1370.0182 0.0000 0.0000 1741.8469 -7477.0451 295.7278 -9218.8921 -7471.2069 297.2967 -510.9935 -437.1223 30386.0552 -149.2447 -111.1035
ENERGY: 1500000 4.6999 19.5499 5.7289 0.0000 -10721.7480 1485.4821 0.0000 0.0000 1745.6396 -7460.6477 296.3717 -9206.2873 -7477.5049 296.9605 294.1598 385.0262 30405.2126 -99.7538 -58.3302
TCL: Running FEP window  10: Lambda1 0.5499999999999996 Lambda2 0.4999999999999996 [dLambda -0.04999999999999999]
TCL: Setting parameter firsttimestep to 0
TCL: Setting parameter alchLambda to 0.5499999999999996
Info: NONBONDED TABLE R-SQUARED SPACING: 0.0625
Info: NONBONDED TABLE SIZE: 705 POINTS
TCL: Setting parameter alchLambda2 to 0.4999999999999996
Info: NONBONDED TABLE R-SQUARED SPACING: 0.0625
Info: NONBONDED TABLE SIZE: 705 POINTS
TCL: Running for 1500000 steps
ETITLE: TS BOND ANGLE DIHED IMPRP ELECT VDW BOUNDARY MISC KINETIC TOTAL TEMP POTENTIAL TOTALAVG TEMPAVG PRESSURE GPRESSURE VOLUME PRESSAVG GPRESSAVG
ENERGY: 0 4.6999 19.5499 5.7289 0.0000 -10721.7959 1485.3133 0.0000 0.0000 1744.7372 -7461.7667 296.2185 -9206.5039 -7461.7667 296.2185 286.5799 371.5449 30405.2126 286.5799 371.5449
ENERGY: 300000 1.9161 8.4206 4.5609 0.0000 -10559.5926 1380.9168 0.0000 0.0000 1798.2595 -7365.5188 305.3054 -9163.7783 -7416.5953 301.4035 -296.0096 -270.0404 30513.3563 -99.4596 -37.0596
ENERGY: 600000 1.9177 14.1381 5.2569 0.0000 -10704.5804 1409.8854 0.0000 0.0000 1737.5440 -7535.8383 294.9973 -9273.3822 -7447.3592 300.3680 -491.5079 -388.7610 30429.6772 -279.4075 -222.2105
ENERGY: 900000 3.0732 11.1650 7.4273 0.0000 -10809.9607 1507.4759 0.0000 0.0000 1809.2105 -7471.6088 307.1647 -9280.8194 -7452.1151 301.1609 420.4316 458.7058 30373.4603 -173.3210 -118.0254
ENERGY: 1200000 0.8902 17.7145 4.1473 0.0000 -10635.3072 1433.0183 0.0000 0.0000 1822.9069 -7356.6299 309.4900 -9179.5368 -7450.8697 301.8360 37.2460 60.1064 30509.4304 -79.2122 -24.6931
ENERGY: 1500000 3.6856 7.8408 4.2194 0.0000 -10593.2118 1380.3270 0.0000 0.0000 1829.6530 -7367.4859 310.6354 -9197.1389 -7439.2435 302.8264 -401.6012 -331.4338 30416.0047 -114.2125 -54.9039
TCL: Running FEP window  11: Lambda1 0.4999999999999996 Lambda2 0.4499999999999996 [dLambda -0.04999999999999999]
TCL: Setting parameter firsttimestep to 0
TCL: Setting parameter alchLambda to 0.4999999999999996
Info: NONBONDED TABLE R-SQUARED SPACING: 0.0625
Info: NONBONDED TABLE SIZE: 705 POINTS
TCL: Setting parameter alchLambda2 to 0.4499999999999996
Info: NONBONDED TABLE R-SQUARED SPACING: 0.0625
Info: NONBONDED TABLE SIZE: 705 POINTS
TCL: Running for 1500000 steps
ETITLE: TS BOND ANGLE DIHED IMPRP ELECT VDW BOUNDARY MISC KINETIC TOTAL TEMP POTENTIAL TOTALAVG TEMPAVG PRESSURE GPRESSURE VOLUME PRESSAVG GPRESSAVG
ENERGY: 0 3.6856 7.8409 4.2194 0.0000 -10593.2022 1379.9791 0.0000 0.0000 1828.7871 -7368.6902 310.4884 -9197.4773 -7368.6902 310.4884 -435.4295 -345.5978 30416.0047 -435.4295 -345.5978
ENERGY: 300000 2.7811 9.2710 4.7368 0.0000 -10800.3608 1481.4798 0.0000 0.0000 1725.4292 -7576.6629 292.9404 -9302.0921 -7488.2805 299.4888 -228.4392 -136.8583 30790.4583 -222.5713 -144.4711
ENERGY: 600000 0.9134 17.2662 6.4672 0.0000 -10670.7385 1452.0330 0.0000 0.0000 1804.6891 -7389.3697 306.3971 -9194.0588 -7488.7468 299.3451 160.9370 214.9684 30323.6976 -224.5384 -144.7698
ENERGY: 900000 1.4513 15.9248 5.0464 0.0000 -10627.1041 1408.2735 0.0000 0.0000 1818.1691 -7378.2392 308.6857 -9196.4082 -7471.6894 299.7076 161.3371 265.1683 30014.3479 -225.9966 -138.9596
ENERGY: 1200000 0.7830 15.4806 7.8412 0.0000 -10635.1243 1361.8816 0.0000 0.0000 1792.0730 -7457.0650 304.2551 -9249.1379 -7467.5698 300.3559 -654.8343 -569.3183 30210.2498 -323.0211 -243.6646
ENERGY: 1500000 3.8329 9.3623 5.4997 0.0000 -10570.2099 1348.3257 0.0000 0.0000 1746.7578 -7456.4315 296.5616 -9203.1893 -7463.8722 299.6400 -756.0977 -713.0101 30426.4157 -349.8946 -270.8804
TCL: Running FEP window  12: Lambda1 0.4499999999999996 Lambda2 0.39999999999999963 [dLambda -0.04999999999999999]
TCL: Setting parameter firsttimestep to 0
TCL: Setting parameter alchLambda to 0.4499999999999996
Info: NONBONDED TABLE R-SQUARED SPACING: 0.0625
Info: NONBONDED TABLE SIZE: 705 POINTS
TCL: Setting parameter alchLambda2 to 0.39999999999999963
Info: NONBONDED TABLE R-SQUARED SPACING: 0.0625
Info: NONBONDED TABLE SIZE: 705 POINTS
TCL: Running for 1500000 steps
ETITLE: TS BOND ANGLE DIHED IMPRP ELECT VDW BOUNDARY MISC KINETIC TOTAL TEMP POTENTIAL TOTALAVG TEMPAVG PRESSURE GPRESSURE VOLUME PRESSAVG GPRESSAVG
ENERGY: 0 3.8329 9.3623 5.4997 0.0000 -10570.2113 1348.6997 0.0000 0.0000 1745.8705 -7456.9463 296.4109 -9202.8168 -7456.9463 296.4109 -803.5265 -718.3716 30426.4157 -803.5265 -718.3716
ENERGY: 300000 1.1416 14.3832 5.3943 0.0000 -10640.6228 1419.5318 0.0000 0.0000 1696.9500 -7503.2218 288.1053 -9200.1718 -7472.9140 295.6714 -185.5784 -102.8034 30425.2705 -59.7166 4.2426
ENERGY: 600000 1.3820 11.7285 6.3102 0.0000 -10784.7786 1510.3521 0.0000 0.0000 1783.7773 -7471.2286 302.8467 -9255.0058 -7484.3243 296.8181 289.2634 315.7510 30471.3703 -59.9677 -7.4857
ENERGY: 900000 0.2572 9.6942 6.1330 0.0000 -10577.2815 1402.8766 0.0000 0.0000 1788.6306 -7369.6898 303.6707 -9158.3204 -7471.2495 297.6268 -78.3968 -10.8270 30627.0110 -99.4951 -39.7211
ENERGY: 1200000 2.5262 11.2076 4.6474 0.0000 -10630.0040 1359.2793 0.0000 0.0000 1773.8394 -7478.5042 301.1595 -9252.3436 -7466.8384 298.4126 -836.9400 -735.2197 30653.6698 -232.5624 -170.4406
ENERGY: 1500000 3.8138 13.3387 6.9929 0.0000 -10636.3742 1360.7247 0.0000 0.0000 1815.4766 -7436.0275 308.2285 -9251.5041 -7456.2492 299.8018 -882.3708 -793.1969 30462.4251 -292.1224 -228.3544
TCL: Running FEP window  13: Lambda1 0.39999999999999963 Lambda2 0.34999999999999964 [dLambda -0.04999999999999999]
TCL: Setting parameter firsttimestep to 0
TCL: Setting parameter alchLambda to 0.39999999999999963
Info: NONBONDED TABLE R-SQUARED SPACING: 0.0625
Info: NONBONDED TABLE SIZE: 705 POINTS
TCL: Setting parameter alchLambda2 to 0.34999999999999964
Info: NONBONDED TABLE R-SQUARED SPACING: 0.0625
Info: NONBONDED TABLE SIZE: 705 POINTS
TCL: Running for 1500000 steps
ETITLE: TS BOND ANGLE DIHED IMPRP ELECT VDW BOUNDARY MISC KINETIC TOTAL TEMP POTENTIAL TOTALAVG TEMPAVG PRESSURE GPRESSURE VOLUME PRESSAVG GPRESSAVG
ENERGY: 0 3.8139 13.3387 6.9929 0.0000 -10636.3765 1361.2935 0.0000 0.0000 1814.6135 -7436.3241 308.0820 -9250.9376 -7436.3241 308.0820 -873.2243 -795.5247 30462.4251 -873.2243 -795.5247
ENERGY: 300000 3.1192 15.5001 3.9654 0.0000 -10757.9794 1459.5820 0.0000 0.0000 1755.7429 -7520.0699 298.0871 -9275.8128 -7467.6784 305.2887 106.8857 209.2607 30031.0174 -1.0667 96.8232
ENERGY: 600000 0.7299 13.0214 6.8041 0.0000 -10603.3767 1410.9799 0.0000 0.0000 1792.6186 -7379.2229 304.3477 -9171.8415 -7433.4196 303.0313 -134.0477 -81.9717 30960.0245 47.9089 121.0872
ENERGY: 900000 1.8674 8.5374 5.3058 0.0000 -10754.3814 1508.5981 0.0000 0.0000 1763.3019 -7466.7708 299.3704 -9230.0727 -7429.0988 303.0509 627.1392 786.8385 29978.7990 192.5628 262.9883
ENERGY: 1200000 7.2027 15.3004 5.5606 0.0000 -10661.0452 1485.0585 0.0000 0.0000 1766.1951 -7381.7278 299.8616 -9147.9229 -7429.1505 301.9520 727.3115 736.4761 29711.7163 174.8829 238.7714
ENERGY: 1500000 4.6884 10.4711 4.2483 0.0000 -10583.3124 1402.1522 0.0000 0.0000 1759.8418 -7401.9105 298.7830 -9161.7524 -7439.2451 300.3123 -144.4740 -166.6060 30604.5222 109.6397 162.9099
TCL: Running FEP window  14: Lambda1 0.34999999999999964 Lambda2 0.29999999999999966 [dLambda -0.04999999999999999]
TCL: Setting parameter firsttimestep to 0
TCL: Setting parameter alchLambda to 0.34999999999999964
Info: NONBONDED TABLE R-SQUARED SPACING: 0.0625
Info: NONBONDED TABLE SIZE: 705 POINTS
TCL: Setting parameter alchLambda2 to 0.29999999999999966
Info: NONBONDED TABLE R-SQUARED SPACING: 0.0625
Info: NONBONDED TABLE SIZE: 705 POINTS
TCL: Running for 1500000 steps
ETITLE: TS BOND ANGLE DIHED IMPRP ELECT VDW BOUNDARY MISC KINETIC TOTAL TEMP POTENTIAL TOTALAVG TEMPAVG PRESSURE GPRESSURE VOLUME PRESSAVG GPRESSAVG
ENERGY: 0 4.6884 10.4711 4.2483 0.0000 -10583.3112 1402.4690 0.0000 0.0000 1758.9459 -7402.4885 298.6308 -9161.4344 -7402.4885 298.6308 -252.5569 -172.0633 30604.5222 -252.5569 -172.0633
ENERGY: 300000 5.6161 12.8862 7.2176 0.0000 -10655.2133 1428.9715 0.0000 0.0000 1803.1092 -7397.4128 306.1288 -9200.5220 -7399.6864 304.2114 -305.4000 -253.7918 30784.5969 -361.0966 -300.3483
ENERGY: 600000 1.2881 10.2585 3.8792 0.0000 -10759.3412 1471.7841 0.0000 0.0000 1705.9193 -7566.2120 289.6281 -9272.1313 -7457.9911 300.8052 -82.0511 -70.7945 30562.6261 -273.5423 -219.4043
ENERGY: 900000 3.4022 12.6030 3.2056 0.0000 -10541.3790 1395.7128 0.0000 0.0000 1808.1873 -7318.2682 306.9910 -9126.4555 -7432.2129 301.0039 -186.1871 -123.2970 30625.1905 -261.8033 -207.2672
ENERGY: 1200000 2.9013 9.5827 4.2446 0.0000 -10667.0469 1404.9510 0.0000 0.0000 1759.9096 -7485.4576 298.7945 -9245.3673 -7430.7157 300.9377 -465.8035 -377.6643 30393.5971 -240.0745 -184.0582
ENERGY: 1500000 1.2403 13.7282 3.7576 0.0000 -10671.5966 1423.2435 0.0000 0.0000 1808.3347 -7421.2923 307.0160 -9229.6270 -7430.9325 301.9749 -84.6883 -7.4187 30254.4376 -118.0924 -61.5187
TCL: Running FEP window  15: Lambda1 0.29999999999999966 Lambda2 0.24999999999999967 [dLambda -0.04999999999999999]
TCL: Setting parameter firsttimestep to 0
TCL: Setting parameter alchLambda to 0.29999999999999966
Info: NONBONDED TABLE R-SQUARED SPACING: 0.0625
Info: NONBONDED TABLE SIZE: 705 POINTS
TCL: Setting parameter alchLambda2 to 0.24999999999999967
Info: NONBONDED TABLE R-SQUARED SPACING: 0.0625
Info: NONBONDED TABLE SIZE: 705 POINTS
TCL: Running for 1500000 steps
ETITLE: TS BOND ANGLE DIHED IMPRP ELECT VDW BOUNDARY MISC KINETIC TOTAL TEMP POTENTIAL TOTALAVG TEMPAVG PRESSURE GPRESSURE VOLUME PRESSAVG GPRESSAVG
ENERGY: 0 1.2403 13.7282 3.7576 0.0000 -10671.5966 1423.3776 0.0000 0.0000 1807.4503 -7422.0426 306.8658 -9229.4929 -7422.0426 306.8658 -101.0858 -12.7456 30254.4376 -101.0858 -12.7456
ENERGY: 300000 0.3051 16.0643 3.6852 0.0000 -10744.6972 1482.5206 0.0000 0.0000 1775.5899 -7466.5321 301.4566 -9242.1220 -7470.0902 300.3298 546.1872 575.0793 29897.9194 248.0507 318.0607
ENERGY: 600000 2.1320 10.8337 4.2067 0.0000 -10626.8351 1414.1602 0.0000 0.0000 1788.3107 -7407.1919 303.6163 -9195.5025 -7472.4799 298.7350 -83.9423 -73.0308 30429.8153 203.8109 250.2867
ENERGY: 900000 2.3495 12.2736 5.3311 0.0000 -10675.2632 1398.1250 0.0000 0.0000 1734.1106 -7523.0735 294.4143 -9257.1840 -7470.3755 298.4034 -298.8690 -195.3235 30024.9513 143.5857 204.3463
ENERGY: 1200000 2.3022 15.6986 4.1594 0.0000 -10803.9346 1465.5509 0.0000 0.0000 1773.8239 -7542.3996 301.1568 -9316.2234 -7473.6280 298.8441 -43.8774 -43.9305 30311.4089 67.6263 124.3307
ENERGY: 1500000 0.9415 15.9983 4.8887 0.0000 -10616.7495 1440.8778 0.0000 0.0000 1775.6597 -7378.3834 301.4685 -9154.0431 -7468.2253 299.7161 252.8820 329.7106 30356.4507 125.7492 184.8301
TCL: Running FEP window  16: Lambda1 0.24999999999999967 Lambda2 0.19999999999999968 [dLambda -0.04999999999999999]
TCL: Setting parameter firsttimestep to 0
TCL: Setting parameter alchLambda to 0.24999999999999967
Info: NONBONDED TABLE R-SQUARED SPACING: 0.0625
Info: NONBONDED TABLE SIZE: 705 POINTS
TCL: Setting parameter alchLambda2 to 0.19999999999999968
Info: NONBONDED TABLE R-SQUARED SPACING: 0.0625
Info: NONBONDED TABLE SIZE: 705 POINTS
TCL: Running for 1500000 steps
ETITLE: TS BOND ANGLE DIHED IMPRP ELECT VDW BOUNDARY MISC KINETIC TOTAL TEMP POTENTIAL TOTALAVG TEMPAVG PRESSURE GPRESSURE VOLUME PRESSAVG GPRESSAVG
ENERGY: 0 0.9415 15.9983 4.8887 0.0000 -10616.7495 1440.0571 0.0000 0.0000 1774.8253 -7380.0386 301.3268 -9154.8639 -7380.0386 301.3268 236.8524 318.4166 30356.4507 236.8524 318.4166
ENERGY: 300000 2.7251 13.3668 3.7864 0.0000 -10648.7300 1454.9619 0.0000 0.0000 1753.7069 -7420.1829 297.7414 -9173.8897 -7434.4433 299.8264 99.1425 214.3580 30489.1583 265.2861 352.5725
ENERGY: 600000 1.6401 11.5664 6.9082 0.0000 -10645.0773 1391.0094 0.0000 0.0000 1745.3818 -7488.5713 296.3280 -9233.9531 -7440.4340 301.3709 -708.9069 -668.1933 30853.0892 38.5468 103.5434
ENERGY: 900000 1.0458 9.0696 4.7384 0.0000 -10771.7190 1550.5928 0.0000 0.0000 1772.8193 -7433.4530 300.9863 -9206.2723 -7454.2930 299.6588 796.0842 893.9627 30424.2148 -19.9860 46.8155
ENERGY: 1200000 2.2723 15.3756 4.7951 0.0000 -10744.6006 1461.8256 0.0000 0.0000 1765.3858 -7494.9463 299.7242 -9260.3321 -7460.0160 299.5896 170.5914 201.4235 30018.0799 -5.5441 64.1509
ENERGY: 1500000 1.5477 10.5673 4.2207 0.0000 -10571.1964 1383.8545 0.0000 0.0000 1812.8284 -7358.1778 307.7789 -9171.0062 -7450.0083 300.2592 -414.9331 -326.0206 30383.7499 -85.0759 -12.1668
TCL: Running FEP window  17: Lambda1 0.19999999999999968 Lambda2 0.1499999999999997 [dLambda -0.04999999999999999]
TCL: Setting parameter firsttimestep to 0
TCL: Setting parameter alchLambda to 0.19999999999999968
Info: NONBONDED TABLE R-SQUARED SPACING: 0.0625
Info: NONBONDED TABLE SIZE: 705 POINTS
TCL: Setting parameter alchLambda2 to 0.1499999999999997
Info: NONBONDED TABLE R-SQUARED SPACING: 0.0625
Info: NONBONDED TABLE SIZE: 705 POINTS
TCL: Running for 1500000 steps
ETITLE: TS BOND ANGLE DIHED IMPRP ELECT VDW BOUNDARY MISC KINETIC TOTAL TEMP POTENTIAL TOTALAVG TEMPAVG PRESSURE GPRESSURE VOLUME PRESSAVG GPRESSAVG
ENERGY: 0 1.5477 10.5673 4.2207 0.0000 -10571.1974 1384.4024 0.0000 0.0000 1811.8972 -7358.5620 307.6208 -9170.4592 -7358.5620 307.6208 -396.8200 -322.0995 30383.7499 -396.8200 -322.0995
ENERGY: 300000 2.0077 9.5882 5.1527 0.0000 -10688.4850 1477.5804 0.0000 0.0000 1755.3863 -7438.7696 298.0265 -9194.1560 -7407.8126 300.2033 281.4415 339.3070 30535.0363 -93.6045 -50.5944
ENERGY: 600000 0.9458 9.6586 4.2968 0.0000 -10739.8895 1466.1371 0.0000 0.0000 1813.3731 -7445.4782 307.8714 -9258.8513 -7429.1606 299.7636 317.6306 373.1347 30226.6562 169.9520 216.4347
ENERGY: 900000 2.0230 9.9343 4.0735 0.0000 -10575.4104 1368.3631 0.0000 0.0000 1841.1857 -7349.8308 312.5934 -9191.0165 -7420.8595 301.1335 -294.8789 -224.2146 29995.0672 -13.8143 44.2084
ENERGY: 1200000 2.8292 14.2691 4.1521 0.0000 -10625.1625 1420.6175 0.0000 0.0000 1834.7026 -7348.5920 311.4927 -9183.2946 -7411.7069 302.0280 -229.4153 -93.6506 30539.5287 -104.1339 -42.5972
ENERGY: 1500000 1.2535 16.8438 6.3062 0.0000 -10561.1678 1311.4072 0.0000 0.0000 1748.4592 -7476.8979 296.8504 -9225.3571 -7412.8208 301.7136 -1374.6315 -1269.8837 30846.1821 -194.8085 -134.6843
TCL: Running FEP window  18: Lambda1 0.1499999999999997 Lambda2 0.09999999999999969 [dLambda -0.05 ]
TCL: Setting parameter firsttimestep to 0
TCL: Setting parameter alchLambda to 0.1499999999999997
Info: NONBONDED TABLE R-SQUARED SPACING: 0.0625
Info: NONBONDED TABLE SIZE: 705 POINTS
TCL: Setting parameter alchLambda2 to 0.09999999999999969
Info: NONBONDED TABLE R-SQUARED SPACING: 0.0625
Info: NONBONDED TABLE SIZE: 705 POINTS
TCL: Running for 1500000 steps
ETITLE: TS BOND ANGLE DIHED IMPRP ELECT VDW BOUNDARY MISC KINETIC TOTAL TEMP POTENTIAL TOTALAVG TEMPAVG PRESSURE GPRESSURE VOLUME PRESSAVG GPRESSAVG
ENERGY: 0 1.2535 16.8438 6.3062 0.0000 -10561.1673 1312.0787 0.0000 0.0000 1747.5837 -7477.1014 296.7018 -9224.6851 -7477.1014 296.7018 -1350.4585 -1267.7481 30846.1821 -1350.4585 -1267.7481
ENERGY: 300000 1.5539 16.7505 5.1115 0.0000 -10648.9928 1412.0560 0.0000 0.0000 1810.0952 -7403.4256 307.3149 -9213.5208 -7430.2076 299.3239 -322.6224 -207.7808 30046.4385 -88.5223 -4.6899
ENERGY: 600000 2.5524 10.7188 6.0645 0.0000 -10751.2039 1429.5137 0.0000 0.0000 1730.1029 -7572.2516 293.7339 -9302.3545 -7437.0048 297.3161 -485.9696 -339.5942 30382.9446 -101.4541 -12.4773
ENERGY: 900000 2.8188 16.4732 6.0488 0.0000 -10565.1404 1344.4940 0.0000 0.0000 1786.0081 -7409.2975 303.2254 -9195.3056 -7443.8782 297.3851 -638.7078 -577.9070 30325.2053 -183.4570 -105.2664
ENERGY: 1200000 2.1448 11.6847 7.3467 0.0000 -10462.2625 1325.8459 0.0000 0.0000 1760.4699 -7354.7704 298.8896 -9115.2404 -7438.8381 297.8802 -753.4645 -735.8337 30733.9193 -221.3381 -140.7599
ENERGY: 1500000 1.6027 12.1944 4.0178 0.0000 -10592.8116 1406.8612 0.0000 0.0000 1749.1226 -7419.0129 296.9631 -9168.1355 -7443.8456 297.8914 -168.3070 -111.8885 30364.7220 -198.9901 -121.1124
TCL: Running FEP window  19: Lambda1 0.09999999999999969 Lambda2 0.049999999999999684 [dLambda -0.05 ]
TCL: Setting parameter firsttimestep to 0
TCL: Setting parameter alchLambda to 0.09999999999999969
Info: NONBONDED TABLE R-SQUARED SPACING: 0.0625
Info: NONBONDED TABLE SIZE: 705 POINTS
TCL: Setting parameter alchLambda2 to 0.049999999999999684
Info: NONBONDED TABLE R-SQUARED SPACING: 0.0625
Info: NONBONDED TABLE SIZE: 705 POINTS
TCL: Running for 1500000 steps
ETITLE: TS BOND ANGLE DIHED IMPRP ELECT VDW BOUNDARY MISC KINETIC TOTAL TEMP POTENTIAL TOTALAVG TEMPAVG PRESSURE GPRESSURE VOLUME PRESSAVG GPRESSAVG
ENERGY: 0 1.6027 12.1944 4.0178 0.0000 -10592.8129 1407.3269 0.0000 0.0000 1748.2403 -7419.4308 296.8133 -9167.6711 -7419.4308 296.8133 -184.8925 -114.5939 30364.7220 -184.8925 -114.5939
ENERGY: 300000 1.7956 13.8501 6.1185 0.0000 -10617.6289 1352.0039 0.0000 0.0000 1744.2758 -7499.5849 296.1402 -9243.8608 -7472.3177 296.9785 -650.7962 -588.2499 29781.1473 -266.4914 -193.3022
ENERGY: 600000 1.5447 13.2046 3.9947 0.0000 -10572.8393 1417.8774 0.0000 0.0000 1741.2299 -7394.9880 295.6231 -9136.2180 -7453.4493 297.0297 -39.1250 -12.3355 30792.0627 -116.8971 -54.8742
ENERGY: 900000 6.1433 14.3335 4.0170 0.0000 -10615.2390 1382.0617 0.0000 0.0000 1777.8966 -7430.7871 301.8483 -9208.6836 -7467.3362 297.1070 -754.0037 -751.4297 30762.4354 -85.1101 -32.9160
ENERGY: 1200000 2.7550 11.8798 3.9937 0.0000 -10588.9429 1387.7869 0.0000 0.0000 1806.0616 -7376.4660 306.6301 -9182.5276 -7462.7287 297.8838 -455.5022 -382.3688 30564.0289 -83.3910 -24.2244
ENERGY: 1500000 3.3709 11.5000 3.7537 0.0000 -10766.0155 1497.6287 0.0000 0.0000 1837.3040 -7412.4582 311.9344 -9249.7621 -7456.7268 299.3594 134.1728 246.3354 30266.9659 -25.3530 35.9791
TCL: Running FEP window  20: Lambda1 0.049999999999999684 Lambda2 0.0    [dLambda -0.049999999999999684]
TCL: Setting parameter firsttimestep to 0
TCL: Setting parameter alchLambda to 0.049999999999999684
Info: NONBONDED TABLE R-SQUARED SPACING: 0.0625
Info: NONBONDED TABLE SIZE: 705 POINTS
TCL: Setting parameter alchLambda2 to 0.0
Info: NONBONDED TABLE R-SQUARED SPACING: 0.0625
Info: NONBONDED TABLE SIZE: 705 POINTS
TCL: Running for 1500000 steps
ETITLE: TS BOND ANGLE DIHED IMPRP ELECT VDW BOUNDARY MISC KINETIC TOTAL TEMP POTENTIAL TOTALAVG TEMPAVG PRESSURE GPRESSURE VOLUME PRESSAVG GPRESSAVG
ENERGY: 0 3.3710 11.5000 3.7537 0.0000 -10766.0190 1494.9186 0.0000 0.0000 1836.4383 -7416.0374 311.7874 -9252.4757 -7416.0374 311.7874 153.5108 236.8251 30266.9659 153.5108 236.8251
ENERGY: 300000 3.8392 8.1291 4.1003 0.0000 -10619.0595 1407.9161 0.0000 0.0000 1752.9848 -7442.0901 297.6188 -9195.0748 -7436.1716 301.1239 -294.1659 -203.1108 30363.7580 90.4896 177.8375
ENERGY: 600000 1.4718 13.6685 5.0990 0.0000 -10691.4327 1412.2362 0.0000 0.0000 1709.4204 -7549.5369 290.2225 -9258.9573 -7492.2678 298.0063 -356.2049 -282.1292 29955.0605 -10.8712 75.0458
ENERGY: 900000 3.3951 11.3445 6.0285 0.0000 -10752.5992 1474.3125 0.0000 0.0000 1734.6164 -7522.9022 294.5002 -9257.5186 -7488.2169 296.9824 203.5731 262.3919 29850.5437 -22.5513 55.5592
ENERGY: 1200000 3.0895 17.2647 5.7155 0.0000 -10620.5317 1391.4786 0.0000 0.0000 1764.3572 -7438.6262 299.5496 -9202.9834 -7473.6379 298.0632 -460.7242 -408.8580 30478.3072 -31.5061 40.6210
ENERGY: 1500000 1.2414 9.5003 4.0937 0.0000 -10556.9707 1323.0034 0.0000 0.0000 1797.0475 -7422.0844 305.0997 -9219.1319 -7466.1909 298.7413 -1233.1308 -1157.5887 30834.1777 -75.1953 -2.8697
TCL: Exiting due to exit command.
