Info: SIMULATION PARAMETERS:
Info: TIMESTEP               2
Info: NUMBER OF STEPS        0
Info: STEPS PER CYCLE        10
Info: PERIODIC CELL BASIS 1  31.65 0 0
Info: PERIODIC CELL BASIS 2  0 31.0013 0
Info: PERIODIC CELL BASIS 3  0 0 30.7262
Info: PERIODIC CELL CENTER   0 0 0
Info: WRAPPING WATERS AROUND PERIODIC BOUNDARIES ON OUTPUT.
Info: WRAPPING ALL CLUSTERS AROUND PERIODIC BOUNDARIES ON OUTPUT.
Info: FIRST LDB TIMESTEP     50
Info: LAST LDB TIMESTEP     -1
Info: HOM BACKGROUND SCALING 1
Info: PME BACKGROUND SCALING 1
Info: MIN ATOMS PER PATCH    40
Info: EMPTY PATCH LOAD       40 ATOMS
Info: VELOCITY FILE          mobley_36119_equil.vel
Info: CENTER OF MASS MOVING INITIALLY? NO
Info: DIELECTRIC             1
Info: EXCLUDE                SCALED ONE-FOUR
Info: 1-4 ELECTROSTATICS SCALED BY 0.833333
Info: MODIFIED 1-4 VDW PARAMETERS WILL BE USED
Info: DCD FILENAME           mobley_36119_prod.dcd
Info: DCD FREQUENCY          100000
Info: DCD FIRST STEP         100000
Info: DCD FILE WILL CONTAIN UNIT CELL DATA
Info: XST FILENAME           mobley_36119_prod.xst
Info: XST FREQUENCY          100000
Info: NO VELOCITY DCD OUTPUT
Info: NO FORCE DCD OUTPUT
Info: OUTPUT FILENAME        mobley_36119_prod
Info: BINARY OUTPUT FILES WILL BE USED
Info: RESTART FILENAME       mobley_36119_prod.restart
Info: RESTART FREQUENCY      100000
Info: BINARY RESTART FILES WILL BE USED
Info: CUTOFF                 9
Info: PAIRLIST DISTANCE      11
Info: PAIRLIST SHRINK RATE   0.01
Info: PAIRLIST GROW RATE     0.01
Info: PAIRLIST TRIGGER       0.3
Info: PAIRLISTS PER CYCLE    2
Info: PAIRLISTS ENABLED
Info: MARGIN                 2
Info: HYDROGEN GROUP CUTOFF  2.5
Info: PATCH DIMENSION        15.5
Info: ENERGY OUTPUT STEPS    100000
Info: ENERGY EVALUATION STEPS    100000
Info: OUTPUT ENERGY PRECISION 4
Info: CROSSTERM ENERGY INCLUDED IN DIHEDRAL
Info: TIMING OUTPUT STEPS    1000000
Info: PRESSURE OUTPUT STEPS  100000
Info: ALCHEMICAL FEP ON
Info: FEP CURRENT LAMBDA VALUE     0
Info: FEP COMPARISON LAMBDA VALUE  0.05
Info: FEP INTRA-ALCHEMICAL NON-BONDED INTERACTIONS WILL BE RETAINED
Info: FEP INTRA-ALCHEMICAL BONDED INTERACTIONS WILL BE RETAINED
Info: FEP VDW SHIFTING COEFFICIENT 5
Info: FEP ELEC. ACTIVE FOR ANNIHILATED PARTICLES BETWEEN LAMBDA = 0 AND LAMBDA = 0.5
Info: FEP ELEC. ACTIVE FOR EXNIHILATED PARTICLES BETWEEN LAMBDA = 0.5 AND LAMBDA = 1
Info: FEP VDW ACTIVE FOR ANNIHILATED PARTICLES BETWEEN LAMBDA = 0 AND LAMBDA = 1
Info: FEP VDW ACTIVE FOR EXNIHILATED PARTICLES BETWEEN LAMBDA = 0 AND LAMBDA = 1
Info: FEP BOND ACTIVE FOR ANNIHILATED PARTICLES BETWEEN LAMBDA = 1 AND LAMBDA = 1
Info: FEP BOND ACTIVE FOR EXNIHILATED PARTICLES BETWEEN LAMBDA = 0 AND LAMBDA = 0
Info: LANGEVIN DYNAMICS ACTIVE
Info: LANGEVIN TEMPERATURE   300
Info: LANGEVIN USING BBK INTEGRATOR
Info: LANGEVIN DAMPING COEFFICIENT IS 1 INVERSE PS
Info: LANGEVIN DYNAMICS APPLIED TO HYDROGENS
Info: LANGEVIN PISTON PRESSURE CONTROL ACTIVE
Info:        TARGET PRESSURE IS 1.01325 BAR
Info:     OSCILLATION PERIOD IS 50 FS
Info:             DECAY TIME IS 25 FS
Info:     PISTON TEMPERATURE IS 300 K
Info:       PRESSURE CONTROL IS GROUP-BASED
Info:    INITIAL STRAIN RATE IS -0.000553183 -0.000553183 -0.000553183
Info:       CELL FLUCTUATION IS ISOTROPIC
Info: PARTICLE MESH EWALD (PME) ACTIVE
Info: PME TOLERANCE               1e-06
Info: PME EWALD COEFFICIENT       0.348832
Info: PME INTERPOLATION ORDER     4
Info: PME GRID DIMENSIONS         32 32 32
Info: PME MAXIMUM GRID SPACING    1
Info: PME CALCULATION WILL BE PERFORMED ON GPU
Info: FULL ELECTROSTATIC EVALUATION FREQUENCY      2
Info: USING VERLET I (r-RESPA) MTS SCHEME.
Info: C1 SPLITTING OF LONG RANGE ELECTROSTATICS
Info: PLACING ATOMS IN PATCHES BY HYDROGEN GROUPS
Info: RIGID BONDS TO HYDROGEN : ALL
Info:         ERROR TOLERANCE : 1e-08
Info:          MAX ITERATIONS : 100
Info: RIGID WATER USING SETTLE ALGORITHM
Info: RANDOM NUMBER SEED     1744068710
Info: USE HYDROGEN BONDS?    NO
Info: Using AMBER format force field!
Info: AMBER PARM FILE        mobley_36119.prmtop
Info: COORDINATE PDB         mobley_36119.pdb
Info: Exclusions will be read from PARM file!
Info: SCNB (VDW SCALING)     2
Info: USING ARITHMETIC MEAN TO COMBINE L-J SIGMA PARAMETERS
Info: BINARY COORDINATES     mobley_36119_equil.coor
Info: SUMMARY OF PARAMETERS:
Info: 7 BONDS
Info: 8 ANGLES
Info:   8 HARMONIC
Info:   0 COSINE-BASED
Info: 9 DIHEDRAL
Info: 0 IMPROPER
Info: 0 CROSSTERM
Info: 0 VDW
Info: 21 VDW_PAIRS
Info: 0 NBTHOLE_PAIRS
Info: To read alchdata from file: mobley_36119.pdb
Info: To read alchflag data from column: 5
Info: STRUCTURE SUMMARY:
Info: 2916 ATOMS
Info: 2915 BONDS
Info: 49 ANGLES
Info: 79 DIHEDRALS
Info: 0 IMPROPERS
Info: 0 CROSSTERMS
Info: 3030 EXCLUSIONS
Info: 2907 RIGID BONDS
Info: ALCH: 0 ATOMS TO DISAPPEAR IN FINAL STATE
Info: ALCH: 27 ATOMS TO APPEAR IN FINAL STATE
Info: 5841 DEGREES OF FREEDOM
Info: 972 HYDROGEN GROUPS
Info: 4 ATOMS IN LARGEST HYDROGEN GROUP
Info: 972 MIGRATION GROUPS
Info: 4 ATOMS IN LARGEST MIGRATION GROUP
Info: TOTAL MASS = 17479.6 amu
Info: TOTAL CHARGE = -1.49012e-08 e
Info: MASS DENSITY = 0.962785 g/cm^3
Info: ATOM DENSITY = 0.096722 atoms/A^3
Info: ADDED 0 IMPLICIT EXCLUSIONS
Info: NONBONDED TABLE R-SQUARED SPACING: 0.0625
Info: NONBONDED TABLE SIZE: 705 POINTS
Info: REDUCING NUMBER OF PATCHES TO IMPROVE LOAD BALANCE
Info: REMOVING COM VELOCITY 0.114736 0.0982072 0.0456498
Info: Use 3D box decompostion in PME FFT.
Info: Updated CUDA force table with 4096 elements.
Info: Updated CUDA LJ table with 6 x 6 elements.
Info: Found 30 unique exclusion lists needing 112 bytes
TCL: Running for 1500000 steps
ETITLE: TS BOND ANGLE DIHED IMPRP ELECT VDW BOUNDARY MISC KINETIC TOTAL TEMP POTENTIAL TOTALAVG TEMPAVG PRESSURE GPRESSURE VOLUME PRESSAVG GPRESSAVG
ENERGY: 0 2.8667 8.8658 5.7019 0.0000 -10517.7621 1478.9025 0.0000 0.0000 1776.5538 -7244.8713 306.1128 -9021.4251 -7244.8713 306.1128 468.3279 558.8868 30148.2692 468.3279 558.8868
ENERGY: 300000 1.8661 9.7726 3.6572 0.0000 -10455.0128 1341.8286 0.0000 0.0000 1693.4030 -7404.4853 291.7854 -9097.8883 -7340.5715 300.3895 -750.0740 -703.1604 29896.9306 25.5110 81.2858
ENERGY: 600000 3.8039 9.0639 4.1331 0.0000 -10420.0531 1390.2545 0.0000 0.0000 1730.8881 -7281.9097 298.2443 -9012.7977 -7351.7290 298.6857 91.9489 82.8324 29599.8755 152.4490 203.8065
ENERGY: 900000 3.5794 12.8713 6.3281 0.0000 -10480.0913 1391.4976 0.0000 0.0000 1767.3494 -7298.4654 304.5269 -9065.8148 -7337.2264 300.6416 -189.3135 -117.3052 29528.8223 52.6395 104.9582
ENERGY: 1200000 1.7574 4.4990 5.2676 0.0000 -10464.3572 1388.9315 0.0000 0.0000 1749.9602 -7313.9416 301.5306 -9063.9018 -7329.5286 300.9668 -199.1986 -65.5198 29619.3560 -53.5562 7.4412
ENERGY: 1500000 1.1958 12.1061 5.4213 0.0000 -10601.4050 1440.5170 0.0000 0.0000 1787.7938 -7354.3709 308.0496 -9142.1648 -7327.7165 301.6625 154.2632 214.7900 29481.0074 -43.5498 22.7724
TCL: Running FEP window   2: Lambda1 0.05   Lambda2 0.1    [dLambda 0.05  ]
TCL: Setting parameter firsttimestep to 0
TCL: Setting parameter alchLambda to 0.05
Info: NONBONDED TABLE R-SQUARED SPACING: 0.0625
Info: NONBONDED TABLE SIZE: 705 POINTS
TCL: Setting parameter alchLambda2 to 0.1
Info: NONBONDED TABLE R-SQUARED SPACING: 0.0625
Info: NONBONDED TABLE SIZE: 705 POINTS
TCL: Running for 1500000 steps
ETITLE: TS BOND ANGLE DIHED IMPRP ELECT VDW BOUNDARY MISC KINETIC TOTAL TEMP POTENTIAL TOTALAVG TEMPAVG PRESSURE GPRESSURE VOLUME PRESSAVG GPRESSAVG
ENERGY: 0 1.1958 12.1061 5.4213 0.0000 -10601.4035 1445.1318 0.0000 0.0000 1786.9457 -7350.6029 307.9034 -9137.5485 -7350.6029 307.9034 132.0099 218.0174 29481.0074 132.0099 218.0174
ENERGY: 300000 1.6818 11.6605 4.3005 0.0000 -10572.7119 1476.0975 0.0000 0.0000 1767.3588 -7311.6129 304.5285 -9078.9717 -7336.9160 303.3966 847.2858 925.7785 29002.6542 239.5188 300.4399
ENERGY: 600000 4.9374 15.6220 5.8335 0.0000 -10471.6772 1407.6454 0.0000 0.0000 1781.5498 -7256.0890 306.9737 -9037.6389 -7325.1304 302.8614 -241.5331 -204.8181 30124.6233 146.7795 199.4347
ENERGY: 900000 0.7319 17.5877 5.9551 0.0000 -10653.9662 1509.5224 0.0000 0.0000 1748.5293 -7371.6398 301.2840 -9120.1691 -7336.1512 301.6129 610.6554 673.2280 29582.3253 223.4421 276.5552
ENERGY: 1200000 3.6242 13.2160 5.3316 0.0000 -10690.0313 1496.0393 0.0000 0.0000 1697.9536 -7473.8667 292.5695 -9171.8202 -7345.7478 300.5935 421.2591 438.4476 29297.7501 224.1157 273.7393
ENERGY: 1500000 1.5218 12.9075 5.8831 0.0000 -10547.8083 1439.8833 0.0000 0.0000 1759.9669 -7327.6457 303.2548 -9087.6126 -7338.8521 300.9196 220.4811 283.1347 29552.5886 177.0698 231.4321
TCL: Running FEP window   3: Lambda1 0.1    Lambda2 0.15000000000000002 [dLambda 0.05000000000000002]
TCL: Setting parameter firsttimestep to 0
TCL: Setting parameter alchLambda to 0.1
Info: NONBONDED TABLE R-SQUARED SPACING: 0.0625
Info: NONBONDED TABLE SIZE: 705 POINTS
TCL: Setting parameter alchLambda2 to 0.15000000000000002
Info: NONBONDED TABLE R-SQUARED SPACING: 0.0625
Info: NONBONDED TABLE SIZE: 705 POINTS
TCL: Running for 1500000 steps
ETITLE: TS BOND ANGLE DIHED IMPRP ELECT VDW BOUNDARY MISC KINETIC TOTAL TEMP POTENTIAL TOTALAVG TEMPAVG PRESSURE GPRESSURE VOLUME PRESSAVG GPRESSAVG
ENERGY: 0 1.5218 12.9075 5.8831 0.0000 -10547.8082 1441.5503 0.0000 0.0000 1759.1158 -7326.8296 303.1082 -9085.9455 -7326.8296 303.1082 215.6746 292.7344 29552.5886 215.6746 292.7344
ENERGY: 300000 1.9263 8.1909 4.4853 0.0000 -10429.0720 1321.9124 0.0000 0.0000 1788.1980 -7304.3592 308.1192 -9092.5572 -7321.7444 303.9892 -823.8883 -758.4420 29891.7899 -267.2925 -212.2696
ENERGY: 600000 1.6489 11.9758 4.7187 0.0000 -10481.1754 1398.9308 0.0000 0.0000 1743.6834 -7320.2179 300.4490 -9063.9012 -7313.8937 302.7298 -275.2345 -182.2087 30152.6257 -158.2390 -100.1860
ENERGY: 900000 0.5602 12.7835 6.7829 0.0000 -10561.5433 1487.7193 0.0000 0.0000 1751.1478 -7302.5495 301.7352 -9053.6973 -7325.8736 301.3231 538.9107 584.2880 29978.3422 -151.3438 -99.3820
ENERGY: 1200000 5.6938 10.3024 5.2846 0.0000 -10449.8298 1391.8836 0.0000 0.0000 1759.0197 -7277.6459 303.0916 -9036.6655 -7324.5722 301.5071 -252.4271 -205.2464 30026.0219 -227.4802 -176.4835
ENERGY: 1500000 4.0312 13.0600 4.6049 0.0000 -10485.9842 1346.8260 0.0000 0.0000 1770.9623 -7346.4998 305.1494 -9117.4621 -7325.1054 302.1479 -674.8146 -619.4233 29644.3522 -236.7087 -182.6030
TCL: Running FEP window   4: Lambda1 0.15000000000000002 Lambda2 0.2    [dLambda 0.04999999999999999]
TCL: Setting parameter firsttimestep to 0
TCL: Setting parameter alchLambda to 0.15000000000000002
Info: NONBONDED TABLE R-SQUARED SPACING: 0.0625
Info: NONBONDED TABLE SIZE: 705 POINTS
TCL: Setting parameter alchLambda2 to 0.2
Info: NONBONDED TABLE R-SQUARED SPACING: 0.0625
Info: NONBONDED TABLE SIZE: 705 POINTS
TCL: Running for 1500000 steps
ETITLE: TS BOND ANGLE DIHED IMPRP ELECT VDW BOUNDARY MISC KINETIC TOTAL TEMP POTENTIAL TOTALAVG TEMPAVG PRESSURE GPRESSURE VOLUME PRESSAVG GPRESSAVG
ENERGY: 0 4.0312 13.0600 4.6049 0.0000 -10485.9837 1347.5220 0.0000 0.0000 1770.0878 -7346.6778 304.9987 -9116.7656 -7346.6778 304.9987 -685.0130 -613.5683 29644.3522 -685.0130 -613.5683
ENERGY: 300000 1.6840 9.2590 5.0026 0.0000 -10586.2909 1448.2208 0.0000 0.0000 1778.2945 -7343.8299 306.4128 -9122.1245 -7328.8656 304.7737 303.9108 430.5611 29458.3777 -67.2014 14.2442
ENERGY: 600000 2.9337 8.3159 4.4386 0.0000 -10660.1906 1517.9220 0.0000 0.0000 1775.7366 -7350.8439 305.9720 -9126.5805 -7329.4333 305.2047 601.2713 619.9106 29787.3308 302.0098 358.9095
ENERGY: 900000 4.8806 14.3679 5.6244 0.0000 -10487.4666 1417.7805 0.0000 0.0000 1737.8519 -7306.9612 299.4442 -9044.8131 -7319.0041 304.1269 120.6891 161.5713 29774.9187 140.9636 196.7261
ENERGY: 1200000 1.0345 9.8626 5.0159 0.0000 -10612.9219 1547.5823 0.0000 0.0000 1750.2490 -7299.1776 301.5803 -9049.4266 -7311.7187 303.7711 841.3928 874.3457 30200.1588 128.2304 189.0044
ENERGY: 1500000 2.9985 15.0114 4.8422 0.0000 -10559.7632 1428.2443 0.0000 0.0000 1793.7792 -7314.8876 309.0809 -9108.6668 -7312.5615 302.9899 85.7508 78.8588 29828.1821 67.3593 126.9987
TCL: Running FEP window   5: Lambda1 0.2    Lambda2 0.25   [dLambda 0.04999999999999999]
TCL: Setting parameter firsttimestep to 0
TCL: Setting parameter alchLambda to 0.2
Info: NONBONDED TABLE R-SQUARED SPACING: 0.0625
Info: NONBONDED TABLE SIZE: 705 POINTS
TCL: Setting parameter alchLambda2 to 0.25
Info: NONBONDED TABLE R-SQUARED SPACING: 0.0625
Info: NONBONDED TABLE SIZE: 705 POINTS
TCL: Running for 1500000 steps
ETITLE: TS BOND ANGLE DIHED IMPRP ELECT VDW BOUNDARY MISC KINETIC TOTAL TEMP POTENTIAL TOTALAVG TEMPAVG PRESSURE GPRESSURE VOLUME PRESSAVG GPRESSAVG
ENERGY: 0 2.9985 15.0114 4.8422 0.0000 -10559.7629 1428.5704 0.0000 0.0000 1792.9531 -7315.3873 308.9385 -9108.3404 -7315.3873 308.9385 9.6200 86.5758 29828.1821 9.6200 86.5758
ENERGY: 300000 0.5987 10.3559 5.3955 0.0000 -10434.2297 1425.1223 0.0000 0.0000 1749.1279 -7243.6294 301.3872 -8992.7573 -7344.5808 299.2832 155.5650 187.3871 30018.5767 -58.9863 1.2633
ENERGY: 600000 1.2077 9.4172 4.9537 0.0000 -10590.0587 1489.2889 0.0000 0.0000 1712.7155 -7372.4758 295.1130 -9085.1913 -7347.1416 298.2213 348.1217 371.0094 30393.8091 16.5875 60.6192
ENERGY: 900000 6.0498 13.9065 5.1726 0.0000 -10505.5364 1399.6520 0.0000 0.0000 1739.5807 -7341.1748 299.7421 -9080.7556 -7329.4088 299.5644 -467.6085 -404.3472 30443.6657 30.8554 74.8259
ENERGY: 1200000 4.8768 10.6389 5.4820 0.0000 -10531.2555 1411.1628 0.0000 0.0000 1777.0063 -7322.0888 306.1908 -9099.0950 -7325.1170 300.8326 -305.0089 -245.6466 30083.9670 -75.8106 -29.6048
ENERGY: 1500000 4.1833 15.1199 6.8445 0.0000 -10401.4907 1305.3843 0.0000 0.0000 1742.2865 -7327.6722 300.2083 -9069.9587 -7320.9381 301.4840 -1124.9350 -1014.2014 30352.6598 -150.4423 -93.0541
TCL: Running FEP window   6: Lambda1 0.25   Lambda2 0.3    [dLambda 0.04999999999999999]
TCL: Setting parameter firsttimestep to 0
TCL: Setting parameter alchLambda to 0.25
Info: NONBONDED TABLE R-SQUARED SPACING: 0.0625
Info: NONBONDED TABLE SIZE: 705 POINTS
TCL: Setting parameter alchLambda2 to 0.3
Info: NONBONDED TABLE R-SQUARED SPACING: 0.0625
Info: NONBONDED TABLE SIZE: 705 POINTS
TCL: Running for 1500000 steps
ETITLE: TS BOND ANGLE DIHED IMPRP ELECT VDW BOUNDARY MISC KINETIC TOTAL TEMP POTENTIAL TOTALAVG TEMPAVG PRESSURE GPRESSURE VOLUME PRESSAVG GPRESSAVG
ENERGY: 0 4.1833 15.1199 6.8445 0.0000 -10401.4908 1305.6876 0.0000 0.0000 1741.4266 -7328.2289 300.0602 -9069.6554 -7328.2289 300.0602 -1094.3698 -1005.1214 30352.6598 -1094.3698 -1005.1214
ENERGY: 300000 2.4230 16.3380 4.9843 0.0000 -10550.1635 1497.9487 0.0000 0.0000 1719.9795 -7308.4900 296.3647 -9028.4695 -7308.4517 298.3534 942.3589 931.6863 29720.9289 -446.0528 -405.8284
ENERGY: 600000 2.2286 10.0300 5.4900 0.0000 -10648.8158 1479.8684 0.0000 0.0000 1707.3816 -7443.8173 294.1940 -9151.1989 -7316.8906 300.2052 306.8514 323.8617 29849.1277 -265.7315 -205.7390
ENERGY: 900000 5.3461 7.2092 4.6847 0.0000 -10454.2275 1344.6314 0.0000 0.0000 1738.0219 -7354.3341 299.4735 -9092.3560 -7310.9626 301.4855 -845.7622 -789.6780 30147.5119 -280.6754 -219.2357
ENERGY: 1200000 2.8194 15.8613 3.7447 0.0000 -10413.6561 1373.1537 0.0000 0.0000 1737.6974 -7280.3797 299.4176 -9018.0771 -7319.8503 301.3319 -77.7979 -37.2072 29983.7339 -208.7367 -148.0175
ENERGY: 1500000 1.4634 13.0341 4.9030 0.0000 -10546.9858 1431.7580 0.0000 0.0000 1758.9866 -7336.8407 303.0859 -9095.8273 -7327.0213 301.3321 408.7636 523.0302 29279.3259 -126.6171 -62.0127
TCL: Running FEP window   7: Lambda1 0.3    Lambda2 0.35   [dLambda 0.04999999999999999]
TCL: Setting parameter firsttimestep to 0
TCL: Setting parameter alchLambda to 0.3
Info: NONBONDED TABLE R-SQUARED SPACING: 0.0625
Info: NONBONDED TABLE SIZE: 705 POINTS
TCL: Setting parameter alchLambda2 to 0.35
Info: NONBONDED TABLE R-SQUARED SPACING: 0.0625
Info: NONBONDED TABLE SIZE: 705 POINTS
TCL: Running for 1500000 steps
ETITLE: TS BOND ANGLE DIHED IMPRP ELECT VDW BOUNDARY MISC KINETIC TOTAL TEMP POTENTIAL TOTALAVG TEMPAVG PRESSURE GPRESSURE VOLUME PRESSAVG GPRESSAVG
ENERGY: 0 1.4634 13.0341 4.9030 0.0000 -10546.9874 1432.3753 0.0000 0.0000 1758.1240 -7337.0876 302.9373 -9095.2116 -7337.0876 302.9373 453.9380 536.9168 29279.3259 453.9380 536.9168
ENERGY: 300000 2.3063 14.9966 5.8936 0.0000 -10356.0896 1334.7491 0.0000 0.0000 1686.5396 -7311.6044 290.6027 -8998.1440 -7328.2279 297.9521 -334.2368 -216.6447 29484.9092 -19.9175 35.1094
ENERGY: 600000 2.7706 12.1869 4.9419 0.0000 -10419.2787 1356.1544 0.0000 0.0000 1748.5276 -7294.6973 301.2837 -9043.2249 -7325.2527 300.6300 -645.5682 -613.6198 30206.7575 -162.9679 -115.8818
ENERGY: 900000 3.1185 12.6671 4.7499 0.0000 -10608.4381 1427.3992 0.0000 0.0000 1623.0672 -7537.4362 279.6660 -9160.5034 -7355.4858 298.1307 -364.0041 -333.9799 29799.2163 -182.3580 -139.9074
ENERGY: 1200000 6.1285 14.3145 7.3422 0.0000 -10583.2084 1423.1984 0.0000 0.0000 1729.9424 -7402.2824 298.0814 -9132.2248 -7355.0029 299.0366 -191.8609 -112.7886 29489.4454 -187.0020 -134.7591
ENERGY: 1500000 1.5248 9.7437 5.0318 0.0000 -10580.8006 1480.5382 0.0000 0.0000 1721.6406 -7362.3214 296.6509 -9083.9620 -7354.0685 299.6539 357.3231 456.2924 29971.1161 -117.6384 -55.3333
TCL: Running FEP window   8: Lambda1 0.35   Lambda2 0.39999999999999997 [dLambda 0.04999999999999999]
TCL: Setting parameter firsttimestep to 0
TCL: Setting parameter alchLambda to 0.35
Info: NONBONDED TABLE R-SQUARED SPACING: 0.0625
Info: NONBONDED TABLE SIZE: 705 POINTS
TCL: Setting parameter alchLambda2 to 0.39999999999999997
Info: NONBONDED TABLE R-SQUARED SPACING: 0.0625
Info: NONBONDED TABLE SIZE: 705 POINTS
TCL: Running for 1500000 steps
ETITLE: TS BOND ANGLE DIHED IMPRP ELECT VDW BOUNDARY MISC KINETIC TOTAL TEMP POTENTIAL TOTALAVG TEMPAVG PRESSURE GPRESSURE VOLUME PRESSAVG GPRESSAVG
ENERGY: 0 1.5249 9.7437 5.0318 0.0000 -10580.8017 1481.5934 0.0000 0.0000 1720.7704 -7362.1374 296.5010 -9082.9079 -7362.1374 296.5010 387.8649 468.8963 29971.1161 387.8649 468.8963
ENERGY: 300000 2.2302 12.2777 5.3768 0.0000 -10435.7441 1357.2793 0.0000 0.0000 1693.7706 -7364.8096 291.8487 -9058.5802 -7349.1567 295.8188 -590.5674 -517.0955 30258.6048 -259.0991 -164.4744
ENERGY: 600000 6.4359 14.3360 4.7215 0.0000 -10414.4770 1330.2670 0.0000 0.0000 1726.9964 -7331.7202 297.5737 -9058.7167 -7353.7522 296.2892 -884.1419 -853.3408 30084.1671 -244.4679 -172.9305
ENERGY: 900000 2.7315 16.6984 7.3441 0.0000 -10401.2060 1289.6775 0.0000 0.0000 1747.3352 -7337.4194 301.0783 -9084.7545 -7345.0991 298.6101 -998.4575 -1013.6314 30119.7094 -214.0405 -149.9411
ENERGY: 1200000 4.2634 16.6794 4.2202 0.0000 -10514.4535 1406.1524 0.0000 0.0000 1772.9048 -7310.2333 305.4841 -9083.1381 -7337.3162 299.1700 -177.9082 -128.9841 29628.3149 -217.2361 -149.9057
ENERGY: 1500000 3.5579 9.0878 4.7527 0.0000 -10508.2281 1374.7483 0.0000 0.0000 1746.9642 -7369.1171 301.0143 -9116.0814 -7333.3847 299.5381 -664.4067 -570.9645 30471.9897 -213.3106 -144.6722
TCL: Running FEP window   9: Lambda1 0.39999999999999997 Lambda2 0.44999999999999996 [dLambda 0.04999999999999999]
TCL: Setting parameter firsttimestep to 0
TCL: Setting parameter alchLambda to 0.39999999999999997
Info: NONBONDED TABLE R-SQUARED SPACING: 0.0625
Info: NONBONDED TABLE SIZE: 705 POINTS
TCL: Setting parameter alchLambda2 to 0.44999999999999996
Info: NONBONDED TABLE R-SQUARED SPACING: 0.0625
Info: NONBONDED TABLE SIZE: 705 POINTS
TCL: Running for 1500000 steps
ETITLE: TS BOND ANGLE DIHED IMPRP ELECT VDW BOUNDARY MISC KINETIC TOTAL TEMP POTENTIAL TOTALAVG TEMPAVG PRESSURE GPRESSURE VOLUME PRESSAVG GPRESSAVG
ENERGY: 0 3.5579 9.0878 4.7527 0.0000 -10508.2265 1374.3472 0.0000 0.0000 1746.1324 -7370.3485 300.8710 -9116.4809 -7370.3485 300.8710 -641.8694 -565.7586 30471.9897 -641.8694 -565.7586
ENERGY: 300000 1.6340 16.4736 4.1889 0.0000 -10495.7412 1390.5935 0.0000 0.0000 1732.4872 -7350.3639 298.5198 -9082.8511 -7311.7253 303.3102 -343.8746 -250.9342 29965.8359 -83.1065 -5.8140
ENERGY: 600000 2.7244 11.3704 4.8131 0.0000 -10448.3770 1409.8086 0.0000 0.0000 1714.2408 -7305.4196 295.3759 -9019.6604 -7346.4194 300.0584 30.9515 122.6416 30082.0814 2.7868 73.1343
ENERGY: 900000 3.5704 13.6067 5.9100 0.0000 -10449.9972 1357.8226 0.0000 0.0000 1753.9741 -7315.1134 302.2222 -9069.0874 -7358.6813 300.5971 -587.7422 -514.8252 29997.6751 -71.4924 -5.5806
ENERGY: 1200000 2.5698 14.7504 5.3301 0.0000 -10395.3770 1414.0000 0.0000 0.0000 1717.5428 -7241.1839 295.9448 -8958.7267 -7342.3701 301.2402 36.9526 163.6983 30156.0616 -124.9592 -46.0464
ENERGY: 1500000 1.8207 16.9714 5.0599 0.0000 -10621.7467 1493.3867 0.0000 0.0000 1713.0068 -7391.5012 295.1632 -9104.5080 -7343.6950 300.8633 780.2505 832.3930 29384.1659 -102.5863 -35.6440
TCL: Running FEP window  10: Lambda1 0.44999999999999996 Lambda2 0.49999999999999994 [dLambda 0.04999999999999999]
TCL: Setting parameter firsttimestep to 0
TCL: Setting parameter alchLambda to 0.44999999999999996
Info: NONBONDED TABLE R-SQUARED SPACING: 0.0625
Info: NONBONDED TABLE SIZE: 705 POINTS
TCL: Setting parameter alchLambda2 to 0.49999999999999994
Info: NONBONDED TABLE R-SQUARED SPACING: 0.0625
Info: NONBONDED TABLE SIZE: 705 POINTS
TCL: Running for 1500000 steps
ETITLE: TS BOND ANGLE DIHED IMPRP ELECT VDW BOUNDARY MISC KINETIC TOTAL TEMP POTENTIAL TOTALAVG TEMPAVG PRESSURE GPRESSURE VOLUME PRESSAVG GPRESSAVG
ENERGY: 0 1.8207 16.9714 5.0599 0.0000 -10621.7467 1493.7446 0.0000 0.0000 1712.1552 -7391.9949 295.0165 -9104.1501 -7391.9949 295.0165 755.4346 840.6386 29384.1659 755.4346 840.6386
ENERGY: 300000 6.6182 9.3249 5.0777 0.0000 -10562.4479 1470.7447 0.0000 0.0000 1750.5339 -7320.1486 301.6294 -9070.6825 -7369.1676 299.0712 312.8519 344.7491 29884.6930 432.0017 535.2232
ENERGY: 600000 6.5987 12.4630 5.1442 0.0000 -10498.5318 1389.0995 0.0000 0.0000 1667.4605 -7417.7660 287.3153 -9085.2265 -7363.9849 297.6422 -255.3321 -230.3007 29543.3302 188.7019 277.5522
ENERGY: 900000 3.9502 15.0401 7.6605 0.0000 -10469.1783 1377.4195 0.0000 0.0000 1749.6313 -7315.4767 301.4739 -9065.1080 -7357.4715 299.2093 -304.9639 -219.8708 29721.1212 21.1121 107.1617
ENERGY: 1200000 2.5185 17.3126 5.3857 0.0000 -10425.9158 1329.5786 0.0000 0.0000 1720.9143 -7350.2060 296.5258 -9071.1203 -7348.9969 299.6039 -542.1491 -544.5453 29595.6872 -134.1013 -63.3020
ENERGY: 1500000 0.8939 12.4219 7.5406 0.0000 -10531.6818 1459.0793 0.0000 0.0000 1748.5800 -7303.1660 301.2928 -9051.7461 -7356.9151 298.9838 222.8053 286.7421 30039.5041 -104.7375 -35.3582
TCL: Running FEP window  11: Lambda1 0.49999999999999994 Lambda2 0.5499999999999999 [dLambda 0.04999999999999999]
TCL: Setting parameter firsttimestep to 0
TCL: Setting parameter alchLambda to 0.49999999999999994
Info: NONBONDED TABLE R-SQUARED SPACING: 0.0625
Info: NONBONDED TABLE SIZE: 705 POINTS
TCL: Setting parameter alchLambda2 to 0.5499999999999999
Info: NONBONDED TABLE R-SQUARED SPACING: 0.0625
Info: NONBONDED TABLE SIZE: 705 POINTS
TCL: Running for 1500000 steps
ETITLE: TS BOND ANGLE DIHED IMPRP ELECT VDW BOUNDARY MISC KINETIC TOTAL TEMP POTENTIAL TOTALAVG TEMPAVG PRESSURE GPRESSURE VOLUME PRESSAVG GPRESSAVG
ENERGY: 0 0.8939 12.4219 7.5406 0.0000 -10531.6825 1458.7873 0.0000 0.0000 1747.6917 -7304.3471 301.1397 -9052.0388 -7304.3471 301.1397 225.5923 294.6546 30039.5041 225.5923 294.6546
ENERGY: 300000 4.1814 8.6885 6.9147 0.0000 -10509.6745 1401.7565 0.0000 0.0000 1725.2505 -7362.8830 297.2729 -9088.1335 -7365.1267 300.1250 -196.8105 -146.7832 30067.9117 -90.2237 -25.2009
ENERGY: 600000 1.2582 15.9611 6.2473 0.0000 -10551.4680 1460.6769 0.0000 0.0000 1726.5399 -7340.7846 297.4951 -9067.3245 -7359.0499 299.3386 490.5582 564.6955 29751.7606 12.0993 70.7998
ENERGY: 900000 2.6503 15.3543 4.7315 0.0000 -10625.2372 1410.7797 0.0000 0.0000 1730.6061 -7461.1154 298.1957 -9191.7215 -7370.6754 298.9372 -407.4424 -335.7619 29702.6918 -95.4759 -32.6341
ENERGY: 1200000 4.0505 13.5844 5.9584 0.0000 -10491.8753 1389.8227 0.0000 0.0000 1735.0256 -7343.4336 298.9572 -9078.4593 -7366.5129 299.6264 -453.4917 -373.4603 30620.4791 -85.0298 -20.7683
ENERGY: 1500000 1.5913 14.3480 4.1629 0.0000 -10494.1942 1370.9699 0.0000 0.0000 1704.5198 -7398.6024 293.7009 -9103.1221 -7366.9549 298.4836 -501.9313 -413.4212 29920.9794 -134.3688 -65.0701
TCL: Running FEP window  12: Lambda1 0.5499999999999999 Lambda2 0.6    [dLambda 0.050000000000000044]
TCL: Setting parameter firsttimestep to 0
TCL: Setting parameter alchLambda to 0.5499999999999999
Info: NONBONDED TABLE R-SQUARED SPACING: 0.0625
Info: NONBONDED TABLE SIZE: 705 POINTS
TCL: Setting parameter alchLambda2 to 0.6
Info: NONBONDED TABLE R-SQUARED SPACING: 0.0625
Info: NONBONDED TABLE SIZE: 705 POINTS
TCL: Running for 1500000 steps
ETITLE: TS BOND ANGLE DIHED IMPRP ELECT VDW BOUNDARY MISC KINETIC TOTAL TEMP POTENTIAL TOTALAVG TEMPAVG PRESSURE GPRESSURE VOLUME PRESSAVG GPRESSAVG
ENERGY: 0 1.5913 14.3480 4.1629 0.0000 -10493.7806 1370.8548 0.0000 0.0000 1703.6525 -7399.1711 293.5514 -9102.8236 -7399.1711 293.5514 -495.0605 -403.2421 29920.9794 -495.0605 -403.2421
ENERGY: 300000 2.2301 11.2630 3.4908 0.0000 -10517.0787 1437.4270 0.0000 0.0000 1707.6458 -7355.0221 294.2395 -9062.6679 -7368.7839 296.9044 20.7600 153.5049 30270.8156 -481.5528 -399.4880
ENERGY: 600000 1.1788 14.6303 6.1313 0.0000 -10546.2530 1431.0189 0.0000 0.0000 1760.3664 -7332.9273 303.3236 -9093.2937 -7369.5854 298.3404 135.8589 197.8299 29897.1051 -175.0312 -121.7650
ENERGY: 900000 4.1600 10.4233 4.6383 0.0000 -10578.5629 1417.1879 0.0000 0.0000 1652.0569 -7490.0965 284.6611 -9142.1534 -7368.3631 297.3393 -350.8646 -292.9837 30107.6772 -182.0653 -127.9997
ENERGY: 1200000 7.5040 10.8752 7.2906 0.0000 -10613.5305 1499.8235 0.0000 0.0000 1788.3712 -7299.6660 308.1491 -9088.0372 -7368.4019 298.8181 709.4373 747.9967 29891.3081 -79.3775 -21.5695
ENERGY: 1500000 2.1382 14.0185 5.4955 0.0000 -10551.5767 1483.8498 0.0000 0.0000 1758.2522 -7287.8225 302.9593 -9046.0747 -7353.7565 299.5905 564.9010 575.6274 30250.8923 32.5336 80.5164
TCL: Running FEP window  13: Lambda1 0.6    Lambda2 0.65   [dLambda 0.050000000000000044]
TCL: Setting parameter firsttimestep to 0
TCL: Setting parameter alchLambda to 0.6
Info: NONBONDED TABLE R-SQUARED SPACING: 0.0625
Info: NONBONDED TABLE SIZE: 705 POINTS
TCL: Setting parameter alchLambda2 to 0.65
Info: NONBONDED TABLE R-SQUARED SPACING: 0.0625
Info: NONBONDED TABLE SIZE: 705 POINTS
TCL: Running for 1500000 steps
ETITLE: TS BOND ANGLE DIHED IMPRP ELECT VDW BOUNDARY MISC KINETIC TOTAL TEMP POTENTIAL TOTALAVG TEMPAVG PRESSURE GPRESSURE VOLUME PRESSAVG GPRESSAVG
ENERGY: 0 2.1382 14.0185 5.4955 0.0000 -10552.8498 1484.3079 0.0000 0.0000 1757.4072 -7289.4826 302.8137 -9046.8897 -7289.4826 302.8137 508.3684 586.5586 30250.8923 508.3684 586.5586
ENERGY: 300000 3.2705 12.3708 6.0205 0.0000 -10452.5684 1351.6205 0.0000 0.0000 1710.2502 -7369.0357 294.6883 -9079.2860 -7356.8525 300.2359 -678.3558 -604.9314 29950.2513 -141.5652 -81.5201
ENERGY: 600000 4.0218 10.6132 4.6431 0.0000 -10463.1620 1423.1390 0.0000 0.0000 1731.7179 -7289.0270 298.3873 -9020.7449 -7342.7256 300.0468 133.0232 200.6549 30209.1945 -180.9104 -107.7619
ENERGY: 900000 4.6592 13.2949 3.9948 0.0000 -10444.8863 1310.2890 0.0000 0.0000 1766.2296 -7346.4189 304.3339 -9112.6485 -7333.2329 300.1971 -1123.1763 -1083.1078 30126.7626 -137.8754 -66.8185
ENERGY: 1200000 1.9730 12.6813 4.6878 0.0000 -10561.7073 1419.6567 0.0000 0.0000 1701.3805 -7421.3279 293.1600 -9122.7084 -7340.2025 299.3814 83.8562 155.7282 29744.0443 -47.8245 20.9926
ENERGY: 1500000 3.8597 10.3143 5.0708 0.0000 -10477.7287 1419.1791 0.0000 0.0000 1715.5656 -7323.7393 295.6041 -9039.3048 -7343.5770 298.2341 130.9080 139.1342 30290.9853 -22.7281 39.1592
TCL: Running FEP window  14: Lambda1 0.65   Lambda2 0.7000000000000001 [dLambda 0.050000000000000044]
TCL: Setting parameter firsttimestep to 0
TCL: Setting parameter alchLambda to 0.65
Info: NONBONDED TABLE R-SQUARED SPACING: 0.0625
Info: NONBONDED TABLE SIZE: 705 POINTS
TCL: Setting parameter alchLambda2 to 0.7000000000000001
Info: NONBONDED TABLE R-SQUARED SPACING: 0.0625
Info: NONBONDED TABLE SIZE: 705 POINTS
TCL: Running for 1500000 steps
ETITLE: TS BOND ANGLE DIHED IMPRP ELECT VDW BOUNDARY MISC KINETIC TOTAL TEMP POTENTIAL TOTALAVG TEMPAVG PRESSURE GPRESSURE VOLUME PRESSAVG GPRESSAVG
ENERGY: 0 3.8597 10.3143 5.0708 0.0000 -10478.3242 1418.7361 0.0000 0.0000 1714.6925 -7325.6509 295.4537 -9040.3433 -7325.6509 295.4537 50.4996 139.5860 30290.9853 50.4996 139.5860
ENERGY: 300000 4.4196 19.4295 3.9825 0.0000 -10386.8672 1312.7868 0.0000 0.0000 1722.7342 -7323.5145 296.8393 -9046.2486 -7316.5067 294.3371 -1012.3772 -957.0087 30246.7408 -133.9650 -72.9629
ENERGY: 600000 1.7397 10.9887 5.5128 0.0000 -10405.3129 1328.9835 0.0000 0.0000 1738.6306 -7319.4576 299.5784 -9058.0882 -7322.3185 297.4417 -546.5106 -450.5924 30253.3178 -147.3469 -69.7683
ENERGY: 900000 2.0876 14.1647 4.3986 0.0000 -10529.2694 1352.8050 0.0000 0.0000 1764.7349 -7391.0786 304.0764 -9155.8135 -7330.8201 299.1928 -472.6917 -429.5811 29594.1693 -151.9861 -80.9294
ENERGY: 1200000 4.6772 13.3535 5.0245 0.0000 -10487.4747 1383.5604 0.0000 0.0000 1767.1620 -7313.6970 304.4946 -9080.8590 -7322.3354 300.1902 -416.8085 -403.3325 30229.0726 -131.4997 -72.0463
ENERGY: 1500000 2.3467 14.0817 5.7872 0.0000 -10568.8961 1459.9285 0.0000 0.0000 1749.0077 -7337.7443 301.3665 -9086.7521 -7329.0181 300.1657 248.8482 362.2651 30201.1336 -87.3675 -21.9689
TCL: Running FEP window  15: Lambda1 0.7000000000000001 Lambda2 0.7500000000000001 [dLambda 0.050000000000000044]
TCL: Setting parameter firsttimestep to 0
TCL: Setting parameter alchLambda to 0.7000000000000001
Info: NONBONDED TABLE R-SQUARED SPACING: 0.0625
Info: NONBONDED TABLE SIZE: 705 POINTS
TCL: Setting parameter alchLambda2 to 0.7500000000000001
Info: NONBONDED TABLE R-SQUARED SPACING: 0.0625
Info: NONBONDED TABLE SIZE: 705 POINTS
TCL: Running for 1500000 steps
ETITLE: TS BOND ANGLE DIHED IMPRP ELECT VDW BOUNDARY MISC KINETIC TOTAL TEMP POTENTIAL TOTALAVG TEMPAVG PRESSURE GPRESSURE VOLUME PRESSAVG GPRESSAVG
ENERGY: 0 2.3467 14.0817 5.7872 0.0000 -10569.8648 1460.5770 0.0000 0.0000 1748.1189 -7338.9534 301.2133 -9087.0723 -7338.9534 301.2133 286.3782 377.5878 30201.1336 286.3782 377.5878
ENERGY: 300000 1.7804 16.7610 4.0927 0.0000 -10454.8605 1413.5119 0.0000 0.0000 1774.1467 -7244.5677 305.6981 -9018.7144 -7281.9829 304.5909 294.2633 371.7937 30019.4240 438.0668 498.8180
ENERGY: 600000 2.0437 14.9358 7.9584 0.0000 -10449.4151 1402.9488 0.0000 0.0000 1697.2068 -7324.3217 292.4408 -9021.5285 -7295.2363 301.9807 -135.4899 -95.8417 30233.5756 240.7370 298.4529
ENERGY: 900000 3.2361 7.9658 4.7891 0.0000 -10622.9875 1524.2795 0.0000 0.0000 1795.5595 -7287.1576 309.3876 -9082.7171 -7305.7734 302.7151 1147.3741 1181.1086 29664.5394 303.5943 360.0467
ENERGY: 1200000 4.2138 13.5406 5.5097 0.0000 -10458.5149 1382.2437 0.0000 0.0000 1702.5280 -7350.4792 293.3577 -9053.0071 -7302.5035 302.3252 -257.2168 -200.0195 30090.4596 229.8814 291.9012
ENERGY: 1500000 3.4440 15.6721 3.4041 0.0000 -10473.7631 1399.3611 0.0000 0.0000 1726.1733 -7325.7085 297.4319 -9051.8818 -7306.0243 302.3068 113.3227 143.5390 29782.4700 157.1510 214.5487
TCL: Running FEP window  16: Lambda1 0.7500000000000001 Lambda2 0.8000000000000002 [dLambda 0.050000000000000044]
TCL: Setting parameter firsttimestep to 0
TCL: Setting parameter alchLambda to 0.7500000000000001
Info: NONBONDED TABLE R-SQUARED SPACING: 0.0625
Info: NONBONDED TABLE SIZE: 705 POINTS
TCL: Setting parameter alchLambda2 to 0.8000000000000002
Info: NONBONDED TABLE R-SQUARED SPACING: 0.0625
Info: NONBONDED TABLE SIZE: 705 POINTS
TCL: Running for 1500000 steps
ETITLE: TS BOND ANGLE DIHED IMPRP ELECT VDW BOUNDARY MISC KINETIC TOTAL TEMP POTENTIAL TOTALAVG TEMPAVG PRESSURE GPRESSURE VOLUME PRESSAVG GPRESSAVG
ENERGY: 0 3.4440 15.6720 3.4041 0.0000 -10475.3838 1399.6503 0.0000 0.0000 1725.2825 -7327.9308 297.2784 -9053.2133 -7327.9308 297.2784 66.5593 158.1528 29782.4700 66.5593 158.1528
ENERGY: 300000 1.6250 14.4287 6.5824 0.0000 -10494.8810 1408.0092 0.0000 0.0000 1734.7398 -7329.4959 298.9080 -9064.2357 -7326.8519 300.4814 46.8215 82.4236 29849.6519 -128.7736 -56.2060
ENERGY: 600000 2.3738 8.3774 7.5882 0.0000 -10377.3044 1322.1764 0.0000 0.0000 1736.7148 -7300.0738 299.2483 -9036.7886 -7320.6494 299.2126 -709.4960 -691.1003 30373.3889 -310.1288 -231.0960
ENERGY: 900000 1.1972 10.5100 4.4527 0.0000 -10454.1179 1371.6961 0.0000 0.0000 1714.0126 -7352.2492 295.3366 -9066.2619 -7320.1028 299.1188 -250.7495 -192.8225 30049.4399 -204.7696 -131.6734
ENERGY: 1200000 3.2505 15.4812 4.7916 0.0000 -10696.1839 1529.3935 0.0000 0.0000 1748.9985 -7394.2686 301.3649 -9143.2671 -7327.6520 300.0872 964.6043 983.4017 29605.9357 -103.0100 -30.7302
ENERGY: 1500000 2.2493 12.3918 6.3165 0.0000 -10524.5433 1418.8641 0.0000 0.0000 1817.6805 -7267.0411 313.1993 -9084.7216 -7334.6778 300.8665 178.1184 250.1692 30075.9485 -53.3469 19.2579
TCL: Running FEP window  17: Lambda1 0.8000000000000002 Lambda2 0.8500000000000002 [dLambda 0.050000000000000044]
TCL: Setting parameter firsttimestep to 0
TCL: Setting parameter alchLambda to 0.8000000000000002
Info: NONBONDED TABLE R-SQUARED SPACING: 0.0625
Info: NONBONDED TABLE SIZE: 705 POINTS
TCL: Setting parameter alchLambda2 to 0.8500000000000002
Info: NONBONDED TABLE R-SQUARED SPACING: 0.0625
Info: NONBONDED TABLE SIZE: 705 POINTS
TCL: Running for 1500000 steps
ETITLE: TS BOND ANGLE DIHED IMPRP ELECT VDW BOUNDARY MISC KINETIC TOTAL TEMP POTENTIAL TOTALAVG TEMPAVG PRESSURE GPRESSURE VOLUME PRESSAVG GPRESSAVG
ENERGY: 0 2.2493 12.3918 6.3165 0.0000 -10526.4754 1421.3805 0.0000 0.0000 1816.8455 -7267.2919 313.0554 -9084.1374 -7267.2919 313.0554 208.8160 285.1979 30075.9485 208.8160 285.1979
ENERGY: 300000 1.3731 12.5383 5.0567 0.0000 -10558.1763 1431.1237 0.0000 0.0000 1718.9720 -7389.1125 296.1911 -9108.0845 -7341.4191 302.3937 26.2949 75.6494 30052.3485 164.9789 202.7026
ENERGY: 600000 4.2399 10.8080 4.4295 0.0000 -10533.3169 1379.0574 0.0000 0.0000 1723.1054 -7411.6766 296.9033 -9134.7821 -7370.0294 301.8587 -69.1356 -2.0776 29785.6876 -52.1012 -12.8151
ENERGY: 900000 1.2102 14.8591 5.6721 0.0000 -10528.1769 1385.4982 0.0000 0.0000 1706.5591 -7414.3782 294.0523 -9120.9373 -7364.9331 300.8960 -320.2058 -218.6267 29984.8193 -99.8402 -43.2202
ENERGY: 1200000 1.2369 16.9822 6.6829 0.0000 -10516.8141 1390.6320 0.0000 0.0000 1722.2357 -7379.0443 296.7534 -9101.2800 -7368.4387 300.7216 -396.6486 -295.1617 30256.8684 -278.6593 -208.9263
ENERGY: 1500000 3.7924 17.7041 4.3682 0.0000 -10582.7544 1404.2580 0.0000 0.0000 1716.4798 -7436.1519 295.7617 -9152.6317 -7363.4612 300.8119 -218.6255 -114.9736 29650.4116 -269.1928 -198.2560
TCL: Running FEP window  18: Lambda1 0.8500000000000002 Lambda2 0.9000000000000002 [dLambda 0.050000000000000044]
TCL: Setting parameter firsttimestep to 0
TCL: Setting parameter alchLambda to 0.8500000000000002
Info: NONBONDED TABLE R-SQUARED SPACING: 0.0625
Info: NONBONDED TABLE SIZE: 705 POINTS
TCL: Setting parameter alchLambda2 to 0.9000000000000002
Info: NONBONDED TABLE R-SQUARED SPACING: 0.0625
Info: NONBONDED TABLE SIZE: 705 POINTS
TCL: Running for 1500000 steps
ETITLE: TS BOND ANGLE DIHED IMPRP ELECT VDW BOUNDARY MISC KINETIC TOTAL TEMP POTENTIAL TOTALAVG TEMPAVG PRESSURE GPRESSURE VOLUME PRESSAVG GPRESSAVG
ENERGY: 0 3.7924 17.7041 4.3682 0.0000 -10584.7417 1407.2061 0.0000 0.0000 1715.6526 -7436.0182 295.6191 -9151.6708 -7436.0182 295.6191 -155.1234 -69.7168 29650.4116 -155.1234 -69.7168
ENERGY: 300000 2.2003 12.2311 3.8356 0.0000 -10479.6983 1419.2401 0.0000 0.0000 1727.9388 -7314.2524 297.7361 -9042.1912 -7316.0007 301.6081 92.6762 116.7230 30145.9686 -63.9366 -11.6448
ENERGY: 600000 1.9898 17.0539 5.7627 0.0000 -10630.5080 1460.4909 0.0000 0.0000 1779.0523 -7366.1583 306.5433 -9145.2106 -7344.0383 302.3548 112.7079 129.4824 30375.5312 154.3103 196.0292
ENERGY: 900000 2.5320 14.9845 5.2700 0.0000 -10422.9517 1348.3860 0.0000 0.0000 1752.6304 -7299.1487 301.9907 -9051.7791 -7343.8281 302.4445 -494.2017 -457.2008 30254.3564 83.4714 121.9972
ENERGY: 1200000 1.8663 14.7280 5.0124 0.0000 -10605.1562 1440.0880 0.0000 0.0000 1738.7150 -7404.7466 299.5929 -9143.4615 -7350.3822 301.8903 86.9036 76.9666 29855.1086 128.0822 162.0757
ENERGY: 1500000 2.8681 19.2444 3.1635 0.0000 -10640.7498 1443.3042 0.0000 0.0000 1770.9083 -7401.2614 305.1401 -9172.1696 -7358.7716 301.7950 86.3092 124.2510 29708.0770 124.0742 164.6687
TCL: Running FEP window  19: Lambda1 0.9000000000000002 Lambda2 0.9500000000000003 [dLambda 0.050000000000000044]
TCL: Setting parameter firsttimestep to 0
TCL: Setting parameter alchLambda to 0.9000000000000002
Info: NONBONDED TABLE R-SQUARED SPACING: 0.0625
Info: NONBONDED TABLE SIZE: 705 POINTS
TCL: Setting parameter alchLambda2 to 0.9500000000000003
Info: NONBONDED TABLE R-SQUARED SPACING: 0.0625
Info: NONBONDED TABLE SIZE: 705 POINTS
TCL: Running for 1500000 steps
ETITLE: TS BOND ANGLE DIHED IMPRP ELECT VDW BOUNDARY MISC KINETIC TOTAL TEMP POTENTIAL TOTALAVG TEMPAVG PRESSURE GPRESSURE VOLUME PRESSAVG GPRESSAVG
ENERGY: 0 2.8681 19.2444 3.1635 0.0000 -10641.7315 1443.8531 0.0000 0.0000 1770.0242 -7402.5783 304.9877 -9172.6025 -7402.5783 304.9877 68.2732 144.3650 29708.0770 68.2732 144.3650
ENERGY: 300000 2.0581 14.4185 4.8858 0.0000 -10601.7993 1485.7723 0.0000 0.0000 1715.1382 -7379.5264 295.5305 -9094.6646 -7336.7983 296.8001 405.7561 507.1524 30176.6756 -331.8191 -262.1881
ENERGY: 600000 3.1597 10.3894 4.1025 0.0000 -10642.6552 1488.2105 0.0000 0.0000 1709.5862 -7427.2069 294.5738 -9136.7931 -7362.1700 297.4978 482.9043 577.1935 29702.2327 -190.4005 -118.9719
ENERGY: 900000 3.9091 14.4972 5.5014 0.0000 -10562.9610 1452.8961 0.0000 0.0000 1762.5677 -7323.5894 303.7029 -9086.1571 -7347.7510 298.1667 556.0529 650.1790 29523.5377 -144.4331 -84.0146
ENERGY: 1200000 4.0698 9.9053 5.2283 0.0000 -10439.0992 1373.0460 0.0000 0.0000 1749.0859 -7297.7640 301.3799 -9046.8498 -7355.1300 297.0029 186.8329 234.3995 29715.1739 52.8644 102.5946
ENERGY: 1500000 3.0419 12.9988 4.7404 0.0000 -10551.3515 1445.1464 0.0000 0.0000 1678.3688 -7407.0553 289.1949 -9085.4240 -7354.1485 297.6850 164.6197 233.8516 29998.2543 -27.6467 23.9623
TCL: Running FEP window  20: Lambda1 0.9500000000000003 Lambda2 1.0    [dLambda 0.04999999999999971]
TCL: Setting parameter firsttimestep to 0
TCL: Setting parameter alchLambda to 0.9500000000000003
Info: NONBONDED TABLE R-SQUARED SPACING: 0.0625
Info: NONBONDED TABLE SIZE: 705 POINTS
TCL: Setting parameter alchLambda2 to 1.0
Info: NONBONDED TABLE R-SQUARED SPACING: 0.0625
Info: NONBONDED TABLE SIZE: 705 POINTS
TCL: Running for 1500000 steps
ETITLE: TS BOND ANGLE DIHED IMPRP ELECT VDW BOUNDARY MISC KINETIC TOTAL TEMP POTENTIAL TOTALAVG TEMPAVG PRESSURE GPRESSURE VOLUME PRESSAVG GPRESSAVG
ENERGY: 0 3.0419 12.9988 4.7404 0.0000 -10552.4811 1445.3783 0.0000 0.0000 1677.4776 -7408.8440 289.0413 -9086.3216 -7408.8440 289.0413 157.7453 248.9827 29998.2543 157.7453 248.9827
ENERGY: 300000 2.0923 10.2694 4.7428 0.0000 -10573.9813 1443.8670 0.0000 0.0000 1724.8998 -7388.1101 297.2125 -9113.0098 -7397.0850 295.8260 405.9415 461.8101 29876.5002 29.2426 120.0456
ENERGY: 600000 10.2223 14.1981 4.6153 0.0000 -10461.7447 1412.1682 0.0000 0.0000 1758.5312 -7262.0097 303.0074 -9020.5409 -7365.1868 296.2008 -138.0688 -89.9564 30185.8258 -138.9540 -49.9934
ENERGY: 900000 3.9544 8.9508 5.3724 0.0000 -10557.3984 1399.3389 0.0000 0.0000 1698.3360 -7441.4459 292.6354 -9139.7819 -7375.1576 296.1190 -24.7608 55.4428 29723.4673 -80.3170 -6.0264
ENERGY: 1200000 7.1751 11.3113 8.7329 0.0000 -10556.1785 1443.9510 0.0000 0.0000 1785.0198 -7299.9885 307.5716 -9085.0083 -7350.2827 298.2844 344.5232 396.8414 29567.1662 -73.6555 -7.8549
ENERGY: 1500000 3.6675 21.7625 5.8545 0.0000 -10565.1336 1424.5788 0.0000 0.0000 1716.1150 -7393.1553 295.6988 -9109.2703 -7353.9665 297.8969 286.3183 347.8110 29676.5615 -43.3934 28.8905
TCL: Exiting due to exit command.
