Info: SIMULATION PARAMETERS:
Info: TIMESTEP               2
Info: NUMBER OF STEPS        0
Info: STEPS PER CYCLE        10
Info: PERIODIC CELL BASIS 1  30.8687 0 0
Info: PERIODIC CELL BASIS 2  0 30.0869 0
Info: PERIODIC CELL BASIS 3  0 0 32.2777
Info: PERIODIC CELL CENTER   0 0 0
Info: WRAPPING WATERS AROUND PERIODIC BOUNDARIES ON OUTPUT.
Info: WRAPPING ALL CLUSTERS AROUND PERIODIC BOUNDARIES ON OUTPUT.
Info: FIRST LDB TIMESTEP     50
Info: LAST LDB TIMESTEP     -1
Info: HOM BACKGROUND SCALING 1
Info: PME BACKGROUND SCALING 1
Info: MIN ATOMS PER PATCH    40
Info: EMPTY PATCH LOAD       40 ATOMS
Info: VELOCITY FILE          mobley_1849020_equil.vel
Info: CENTER OF MASS MOVING INITIALLY? NO
Info: DIELECTRIC             1
Info: EXCLUDE                SCALED ONE-FOUR
Info: 1-4 ELECTROSTATICS SCALED BY 0.833333
Info: MODIFIED 1-4 VDW PARAMETERS WILL BE USED
Info: DCD FILENAME           mobley_1849020_prod.dcd
Info: DCD FREQUENCY          100000
Info: DCD FIRST STEP         100000
Info: DCD FILE WILL CONTAIN UNIT CELL DATA
Info: XST FILENAME           mobley_1849020_prod.xst
Info: XST FREQUENCY          100000
Info: NO VELOCITY DCD OUTPUT
Info: NO FORCE DCD OUTPUT
Info: OUTPUT FILENAME        mobley_1849020_prod
Info: BINARY OUTPUT FILES WILL BE USED
Info: RESTART FILENAME       mobley_1849020_prod.restart
Info: RESTART FREQUENCY      100000
Info: BINARY RESTART FILES WILL BE USED
Info: CUTOFF                 9
Info: PAIRLIST DISTANCE      11
Info: PAIRLIST SHRINK RATE   0.01
Info: PAIRLIST GROW RATE     0.01
Info: PAIRLIST TRIGGER       0.3
Info: PAIRLISTS PER CYCLE    2
Info: PAIRLISTS ENABLED
Info: MARGIN                 2
Info: HYDROGEN GROUP CUTOFF  2.5
Info: PATCH DIMENSION        15.5
Info: ENERGY OUTPUT STEPS    100000
Info: ENERGY EVALUATION STEPS    100000
Info: OUTPUT ENERGY PRECISION 4
Info: CROSSTERM ENERGY INCLUDED IN DIHEDRAL
Info: TIMING OUTPUT STEPS    1000000
Info: PRESSURE OUTPUT STEPS  100000
Info: ALCHEMICAL FEP ON
Info: FEP CURRENT LAMBDA VALUE     0
Info: FEP COMPARISON LAMBDA VALUE  0.05
Info: FEP INTRA-ALCHEMICAL NON-BONDED INTERACTIONS WILL BE RETAINED
Info: FEP INTRA-ALCHEMICAL BONDED INTERACTIONS WILL BE RETAINED
Info: FEP VDW SHIFTING COEFFICIENT 5
Info: FEP ELEC. ACTIVE FOR ANNIHILATED PARTICLES BETWEEN LAMBDA = 0 AND LAMBDA = 0.5
Info: FEP ELEC. ACTIVE FOR EXNIHILATED PARTICLES BETWEEN LAMBDA = 0.5 AND LAMBDA = 1
Info: FEP VDW ACTIVE FOR ANNIHILATED PARTICLES BETWEEN LAMBDA = 0 AND LAMBDA = 1
Info: FEP VDW ACTIVE FOR EXNIHILATED PARTICLES BETWEEN LAMBDA = 0 AND LAMBDA = 1
Info: FEP BOND ACTIVE FOR ANNIHILATED PARTICLES BETWEEN LAMBDA = 1 AND LAMBDA = 1
Info: FEP BOND ACTIVE FOR EXNIHILATED PARTICLES BETWEEN LAMBDA = 0 AND LAMBDA = 0
Info: LANGEVIN DYNAMICS ACTIVE
Info: LANGEVIN TEMPERATURE   300
Info: LANGEVIN USING BBK INTEGRATOR
Info: LANGEVIN DAMPING COEFFICIENT IS 1 INVERSE PS
Info: LANGEVIN DYNAMICS APPLIED TO HYDROGENS
Info: LANGEVIN PISTON PRESSURE CONTROL ACTIVE
Info:        TARGET PRESSURE IS 1.01325 BAR
Info:     OSCILLATION PERIOD IS 50 FS
Info:             DECAY TIME IS 25 FS
Info:     PISTON TEMPERATURE IS 300 K
Info:       PRESSURE CONTROL IS GROUP-BASED
Info:    INITIAL STRAIN RATE IS 0.000256957 0.000256957 0.000256957
Info:       CELL FLUCTUATION IS ISOTROPIC
Info: PARTICLE MESH EWALD (PME) ACTIVE
Info: PME TOLERANCE               1e-06
Info: PME EWALD COEFFICIENT       0.348832
Info: PME INTERPOLATION ORDER     4
Info: PME GRID DIMENSIONS         32 32 36
Info: PME MAXIMUM GRID SPACING    1
Info: PME CALCULATION WILL BE PERFORMED ON GPU
Info: FULL ELECTROSTATIC EVALUATION FREQUENCY      2
Info: USING VERLET I (r-RESPA) MTS SCHEME.
Info: C1 SPLITTING OF LONG RANGE ELECTROSTATICS
Info: PLACING ATOMS IN PATCHES BY HYDROGEN GROUPS
Info: RIGID BONDS TO HYDROGEN : ALL
Info:         ERROR TOLERANCE : 1e-08
Info:          MAX ITERATIONS : 100
Info: RIGID WATER USING SETTLE ALGORITHM
Info: RANDOM NUMBER SEED     1744098500
Info: USE HYDROGEN BONDS?    NO
Info: Using AMBER format force field!
Info: AMBER PARM FILE        mobley_1849020.prmtop
Info: COORDINATE PDB         mobley_1849020.pdb
Info: Exclusions will be read from PARM file!
Info: SCNB (VDW SCALING)     2
Info: USING ARITHMETIC MEAN TO COMBINE L-J SIGMA PARAMETERS
Info: BINARY COORDINATES     mobley_1849020_equil.coor
Info: SUMMARY OF PARAMETERS:
Info: 15 BONDS
Info: 20 ANGLES
Info:   20 HARMONIC
Info:   0 COSINE-BASED
Info: 13 DIHEDRAL
Info: 0 IMPROPER
Info: 0 CROSSTERM
Info: 0 VDW
Info: 78 VDW_PAIRS
Info: 0 NBTHOLE_PAIRS
Info: To read alchdata from file: mobley_1849020.pdb
Info: To read alchflag data from column: 5
Info: STRUCTURE SUMMARY:
Info: 2902 ATOMS
Info: 2902 BONDS
Info: 58 ANGLES
Info: 81 DIHEDRALS
Info: 0 IMPROPERS
Info: 0 CROSSTERMS
Info: 3022 EXCLUSIONS
Info: 2884 RIGID BONDS
Info: ALCH: 0 ATOMS TO DISAPPEAR IN FINAL STATE
Info: ALCH: 34 ATOMS TO APPEAR IN FINAL STATE
Info: 5822 DEGREES OF FREEDOM
Info: 974 HYDROGEN GROUPS
Info: 4 ATOMS IN LARGEST HYDROGEN GROUP
Info: 974 MIGRATION GROUPS
Info: 4 ATOMS IN LARGEST MIGRATION GROUP
Info: TOTAL MASS = 17566.1 amu
Info: TOTAL CHARGE = -5.96046e-08 e
Info: MASS DENSITY = 0.973053 g/cm^3
Info: ATOM DENSITY = 0.0968052 atoms/A^3
Info: ADDED 0 IMPLICIT EXCLUSIONS
Info: NONBONDED TABLE R-SQUARED SPACING: 0.0625
Info: NONBONDED TABLE SIZE: 705 POINTS
Info: REMOVING COM VELOCITY 0.245933 -0.0596539 0.0915431
Info: Use 3D box decompostion in PME FFT.
Info: Updated CUDA force table with 4096 elements.
Info: Updated CUDA LJ table with 12 x 12 elements.
Info: Found 36 unique exclusion lists needing 160 bytes
TCL: Running for 1500000 steps
ETITLE: TS BOND ANGLE DIHED IMPRP ELECT VDW BOUNDARY MISC KINETIC TOTAL TEMP POTENTIAL TOTALAVG TEMPAVG PRESSURE GPRESSURE VOLUME PRESSAVG GPRESSAVG
ENERGY: 0 9.8549 13.6598 29.5551 0.0000 -10444.1253 1429.4826 0.0000 0.0000 1755.9875 -7205.5854 303.5565 -8961.5729 -7205.5854 303.5565 115.3435 208.9356 29977.7389 115.3435 208.9356
ENERGY: 300000 4.3953 23.3018 25.1619 0.0000 -10543.3336 1493.8538 0.0000 0.0000 1778.7760 -7217.8448 307.4960 -8996.6208 -7271.6928 301.8099 816.6947 854.8711 29457.2891 516.9847 584.3853
ENERGY: 600000 4.9913 14.4988 25.2897 0.0000 -10624.2145 1490.4529 0.0000 0.0000 1725.9331 -7363.0486 298.3611 -9088.9817 -7287.6960 300.2046 607.8995 633.2245 29361.6149 619.5913 678.5042
ENERGY: 900000 4.9717 11.4539 27.1916 0.0000 -10391.5162 1325.3538 0.0000 0.0000 1767.1507 -7255.3944 305.4863 -9022.5451 -7287.7918 301.6762 -514.0306 -453.8159 29584.9233 325.1724 386.7600
ENERGY: 1200000 5.6938 13.7818 26.7336 0.0000 -10534.9964 1384.1181 0.0000 0.0000 1660.5373 -7444.1317 287.0561 -9104.6690 -7295.9676 300.4570 -819.6367 -765.5470 29840.7505 199.2672 260.5630
ENERGY: 1500000 4.8341 16.1877 28.5718 0.0000 -10359.2851 1310.6142 0.0000 0.0000 1721.5396 -7277.5378 297.6016 -8999.0774 -7300.3817 300.0209 -857.4569 -812.8201 29934.0654 40.3416 100.0869
TCL: Running FEP window   2: Lambda1 0.05   Lambda2 0.1    [dLambda 0.05  ]
TCL: Setting parameter firsttimestep to 0
TCL: Setting parameter alchLambda to 0.05
Info: NONBONDED TABLE R-SQUARED SPACING: 0.0625
Info: NONBONDED TABLE SIZE: 705 POINTS
TCL: Setting parameter alchLambda2 to 0.1
Info: NONBONDED TABLE R-SQUARED SPACING: 0.0625
Info: NONBONDED TABLE SIZE: 705 POINTS
TCL: Running for 1500000 steps
ETITLE: TS BOND ANGLE DIHED IMPRP ELECT VDW BOUNDARY MISC KINETIC TOTAL TEMP POTENTIAL TOTALAVG TEMPAVG PRESSURE GPRESSURE VOLUME PRESSAVG GPRESSAVG
ENERGY: 0 4.8341 16.1877 28.5718 0.0000 -10359.2844 1318.8020 0.0000 0.0000 1720.6641 -7270.2248 297.4502 -8990.8889 -7270.2248 297.4502 -883.3415 -791.7073 29934.0654 -883.3415 -791.7073
ENERGY: 300000 7.0929 15.2946 27.9212 0.0000 -10539.8037 1406.6784 0.0000 0.0000 1724.8199 -7357.9966 298.1686 -9082.8166 -7332.8289 296.4628 -391.0186 -331.4805 29848.8101 -350.1589 -264.5695
ENERGY: 600000 3.6597 19.5888 29.1402 0.0000 -10509.4961 1451.8472 0.0000 0.0000 1744.4519 -7260.8084 301.5624 -9005.2602 -7308.4989 298.6511 305.1193 376.0167 29842.3712 -74.2923 -1.4883
ENERGY: 900000 6.3254 16.2689 26.2903 0.0000 -10623.1832 1470.5654 0.0000 0.0000 1736.3640 -7367.3692 300.1642 -9103.7332 -7327.9416 297.6081 508.0791 561.3555 29128.1811 10.4887 77.6549
ENERGY: 1200000 6.6488 10.1694 26.0289 0.0000 -10603.7575 1408.2127 0.0000 0.0000 1699.3034 -7453.3943 293.7576 -9152.6977 -7345.5138 296.6896 -404.1009 -312.5666 29469.3563 -28.2058 35.1762
ENERGY: 1500000 6.1253 17.3179 27.7642 0.0000 -10525.7954 1450.1627 0.0000 0.0000 1689.6799 -7334.7454 292.0940 -9024.4253 -7336.2344 297.0337 140.7395 187.6031 29732.9000 -16.1814 49.9591
TCL: Running FEP window   3: Lambda1 0.1    Lambda2 0.15000000000000002 [dLambda 0.05000000000000002]
TCL: Setting parameter firsttimestep to 0
TCL: Setting parameter alchLambda to 0.1
Info: NONBONDED TABLE R-SQUARED SPACING: 0.0625
Info: NONBONDED TABLE SIZE: 705 POINTS
TCL: Setting parameter alchLambda2 to 0.15000000000000002
Info: NONBONDED TABLE R-SQUARED SPACING: 0.0625
Info: NONBONDED TABLE SIZE: 705 POINTS
TCL: Running for 1500000 steps
ETITLE: TS BOND ANGLE DIHED IMPRP ELECT VDW BOUNDARY MISC KINETIC TOTAL TEMP POTENTIAL TOTALAVG TEMPAVG PRESSURE GPRESSURE VOLUME PRESSAVG GPRESSAVG
ENERGY: 0 6.1253 17.3179 27.7642 0.0000 -10525.7956 1456.3399 0.0000 0.0000 1688.8219 -7329.4263 291.9457 -9018.2482 -7329.4263 291.9457 142.8917 213.6171 29732.9000 142.8917 213.6171
ENERGY: 300000 8.0366 16.4462 27.3397 0.0000 -10318.7013 1259.1246 0.0000 0.0000 1714.8646 -7292.8895 296.4476 -9007.7540 -7258.0527 301.8280 -1266.8628 -1185.0217 29642.1118 -395.0018 -296.7832
ENERGY: 600000 7.0387 15.2571 28.9955 0.0000 -10617.4634 1459.2641 0.0000 0.0000 1790.6356 -7316.2724 309.5461 -9106.9080 -7275.8072 303.0476 525.7742 594.3584 29278.9959 -484.3677 -407.7716
ENERGY: 900000 4.0332 11.5608 27.2583 0.0000 -10486.1706 1378.3201 0.0000 0.0000 1704.9621 -7360.0360 294.7358 -9064.9981 -7300.3511 301.7244 -253.5094 -221.5996 29347.8666 -449.6815 -376.7732
ENERGY: 1200000 6.9303 13.0460 25.0910 0.0000 -10595.5318 1442.5405 0.0000 0.0000 1799.9070 -7308.0170 311.1489 -9107.9240 -7298.5849 302.1830 193.2891 231.2350 29468.3181 -262.5354 -190.4250
ENERGY: 1500000 4.5375 12.8690 29.6216 0.0000 -10471.1233 1361.8401 0.0000 0.0000 1679.0070 -7383.2481 290.2490 -9062.2551 -7316.5205 300.9908 -688.4767 -635.3643 29910.5477 -330.8736 -261.6084
TCL: Running FEP window   4: Lambda1 0.15000000000000002 Lambda2 0.2    [dLambda 0.04999999999999999]
TCL: Setting parameter firsttimestep to 0
TCL: Setting parameter alchLambda to 0.15000000000000002
Info: NONBONDED TABLE R-SQUARED SPACING: 0.0625
Info: NONBONDED TABLE SIZE: 705 POINTS
TCL: Setting parameter alchLambda2 to 0.2
Info: NONBONDED TABLE R-SQUARED SPACING: 0.0625
Info: NONBONDED TABLE SIZE: 705 POINTS
TCL: Running for 1500000 steps
ETITLE: TS BOND ANGLE DIHED IMPRP ELECT VDW BOUNDARY MISC KINETIC TOTAL TEMP POTENTIAL TOTALAVG TEMPAVG PRESSURE GPRESSURE VOLUME PRESSAVG GPRESSAVG
ENERGY: 0 4.5375 12.8690 29.6216 0.0000 -10471.1231 1361.7447 0.0000 0.0000 1678.1110 -7384.2392 290.0941 -9062.3502 -7384.2392 290.0941 -709.7988 -628.9836 29910.5477 -709.7988 -628.9836
ENERGY: 300000 6.4886 16.0723 24.2649 0.0000 -10543.1698 1441.9136 0.0000 0.0000 1738.8051 -7315.6254 300.5862 -9054.4304 -7316.4422 298.7660 379.3135 402.8288 29594.9569 -227.1525 -158.9658
ENERGY: 600000 4.9409 13.3755 24.7492 0.0000 -10326.8886 1360.9967 0.0000 0.0000 1711.5978 -7211.2285 295.8829 -8922.8263 -7312.6769 297.6430 -212.7817 -159.2554 29954.8064 -290.7584 -236.5988
ENERGY: 900000 5.0730 15.2660 26.0874 0.0000 -10472.8131 1382.9702 0.0000 0.0000 1741.6994 -7301.7170 301.0866 -9043.4165 -7319.2358 298.7574 -119.7404 -23.4182 29361.5976 -297.3518 -240.7538
ENERGY: 1200000 3.2976 14.6322 32.8766 0.0000 -10462.2905 1351.3329 0.0000 0.0000 1809.5265 -7250.6248 312.8118 -9060.1513 -7325.5465 298.7979 -271.5841 -250.1232 29552.8275 -170.8656 -118.9999
ENERGY: 1500000 7.6996 18.4385 24.8688 0.0000 -10400.8852 1361.9447 0.0000 0.0000 1749.1294 -7238.8041 302.3710 -8987.9335 -7317.0197 299.5580 -159.1511 -66.3172 29544.8486 -106.1966 -48.8740
TCL: Running FEP window   5: Lambda1 0.2    Lambda2 0.25   [dLambda 0.04999999999999999]
TCL: Setting parameter firsttimestep to 0
TCL: Setting parameter alchLambda to 0.2
Info: NONBONDED TABLE R-SQUARED SPACING: 0.0625
Info: NONBONDED TABLE SIZE: 705 POINTS
TCL: Setting parameter alchLambda2 to 0.25
Info: NONBONDED TABLE R-SQUARED SPACING: 0.0625
Info: NONBONDED TABLE SIZE: 705 POINTS
TCL: Running for 1500000 steps
ETITLE: TS BOND ANGLE DIHED IMPRP ELECT VDW BOUNDARY MISC KINETIC TOTAL TEMP POTENTIAL TOTALAVG TEMPAVG PRESSURE GPRESSURE VOLUME PRESSAVG GPRESSAVG
ENERGY: 0 7.6996 18.4385 24.8688 0.0000 -10400.8856 1362.4997 0.0000 0.0000 1748.2491 -7239.1299 302.2188 -8987.3789 -7239.1299 302.2188 -120.2985 -55.1300 29544.8486 -120.2985 -55.1300
ENERGY: 300000 6.8619 13.9807 26.4678 0.0000 -10461.6783 1426.9755 0.0000 0.0000 1789.9612 -7197.4313 309.4296 -8987.3925 -7251.6441 300.9191 564.5619 599.4231 29368.9494 254.3773 328.4226
ENERGY: 600000 7.4703 17.1129 26.8940 0.0000 -10487.6603 1392.5586 0.0000 0.0000 1769.0142 -7274.6103 305.8085 -9043.6245 -7275.6158 299.8043 -275.8994 -261.7121 29794.2770 8.9710 60.3370
ENERGY: 900000 6.8371 15.1553 22.3740 0.0000 -10478.5920 1379.5067 0.0000 0.0000 1750.4620 -7304.2570 302.6013 -9054.7189 -7295.6953 299.1715 -161.0988 -116.7619 29751.2734 -32.0701 18.7328
ENERGY: 1200000 4.9622 8.4653 30.0472 0.0000 -10411.6466 1278.3752 0.0000 0.0000 1743.1289 -7346.6679 301.3337 -9089.7967 -7299.4222 299.4002 -922.7895 -954.5251 29460.8715 -48.0767 -9.5312
ENERGY: 1500000 5.7426 11.1186 26.4101 0.0000 -10573.1131 1356.2032 0.0000 0.0000 1765.2524 -7408.3862 305.1582 -9173.6386 -7312.6057 299.3137 -788.6209 -748.1479 29475.4742 -91.1667 -50.7446
TCL: Running FEP window   6: Lambda1 0.25   Lambda2 0.3    [dLambda 0.04999999999999999]
TCL: Setting parameter firsttimestep to 0
TCL: Setting parameter alchLambda to 0.25
Info: NONBONDED TABLE R-SQUARED SPACING: 0.0625
Info: NONBONDED TABLE SIZE: 705 POINTS
TCL: Setting parameter alchLambda2 to 0.3
Info: NONBONDED TABLE R-SQUARED SPACING: 0.0625
Info: NONBONDED TABLE SIZE: 705 POINTS
TCL: Running for 1500000 steps
ETITLE: TS BOND ANGLE DIHED IMPRP ELECT VDW BOUNDARY MISC KINETIC TOTAL TEMP POTENTIAL TOTALAVG TEMPAVG PRESSURE GPRESSURE VOLUME PRESSAVG GPRESSAVG
ENERGY: 0 5.7426 11.1186 26.4101 0.0000 -10573.1122 1358.5349 0.0000 0.0000 1764.4289 -7406.8770 305.0158 -9171.3059 -7406.8770 305.0158 -828.8831 -728.5803 29475.4742 -828.8831 -728.5803
ENERGY: 300000 8.5977 13.7251 25.6823 0.0000 -10446.1136 1391.0702 0.0000 0.0000 1726.1067 -7280.9315 298.3911 -9007.0382 -7333.4491 300.9721 -96.2715 -98.2482 29530.1873 -257.9275 -192.6892
ENERGY: 600000 8.5056 15.9020 23.8336 0.0000 -10574.0127 1462.7335 0.0000 0.0000 1702.7491 -7360.2889 294.3533 -9063.0381 -7328.4403 300.3072 591.8184 635.6923 29431.6817 154.6547 211.6469
ENERGY: 900000 6.2784 23.1401 24.7451 0.0000 -10471.8000 1401.9388 0.0000 0.0000 1721.2010 -7294.4966 297.5430 -9015.6976 -7315.1853 300.6419 -154.4926 -70.7072 30007.3731 88.6540 142.1057
ENERGY: 1200000 6.5324 13.2409 29.4619 0.0000 -10530.7075 1396.6777 0.0000 0.0000 1715.2247 -7369.5699 296.5099 -9084.7945 -7313.3701 300.1822 -75.8816 -24.1917 29706.3330 -27.2482 28.7352
ENERGY: 1500000 6.5777 11.6388 29.3474 0.0000 -10373.0396 1333.2614 0.0000 0.0000 1722.7214 -7269.4928 297.8059 -8992.2142 -7304.4422 300.3178 -359.6256 -364.9266 29932.1319 -65.1548 -19.7613
TCL: Running FEP window   7: Lambda1 0.3    Lambda2 0.35   [dLambda 0.04999999999999999]
TCL: Setting parameter firsttimestep to 0
TCL: Setting parameter alchLambda to 0.3
Info: NONBONDED TABLE R-SQUARED SPACING: 0.0625
Info: NONBONDED TABLE SIZE: 705 POINTS
TCL: Setting parameter alchLambda2 to 0.35
Info: NONBONDED TABLE R-SQUARED SPACING: 0.0625
Info: NONBONDED TABLE SIZE: 705 POINTS
TCL: Running for 1500000 steps
ETITLE: TS BOND ANGLE DIHED IMPRP ELECT VDW BOUNDARY MISC KINETIC TOTAL TEMP POTENTIAL TOTALAVG TEMPAVG PRESSURE GPRESSURE VOLUME PRESSAVG GPRESSAVG
ENERGY: 0 6.5777 11.6388 29.3474 0.0000 -10373.0389 1333.1609 0.0000 0.0000 1721.8458 -7270.4682 297.6545 -8992.3140 -7270.4682 297.6545 -446.8954 -358.4553 29932.1319 -446.8954 -358.4553
ENERGY: 300000 5.9478 13.3138 29.1507 0.0000 -10568.8357 1446.4349 0.0000 0.0000 1759.3845 -7314.6040 304.1438 -9073.9885 -7300.9021 304.0702 310.2479 383.6697 29671.4670 -212.0105 -142.0118
ENERGY: 600000 2.7473 15.8132 22.6973 0.0000 -10455.2588 1406.3289 0.0000 0.0000 1754.9643 -7252.7079 303.3797 -9007.6722 -7303.2020 301.9616 10.6914 105.6299 30248.7836 -112.8296 -30.8892
ENERGY: 900000 5.7521 15.6632 24.4374 0.0000 -10526.4357 1450.2582 0.0000 0.0000 1726.4688 -7303.8558 298.4537 -9030.3246 -7307.6871 300.3643 728.9307 808.1429 29476.1958 -82.7956 -5.4035
ENERGY: 1200000 6.6051 15.3190 28.9214 0.0000 -10544.3620 1436.1790 0.0000 0.0000 1752.3286 -7305.0088 302.9240 -9057.3374 -7307.9883 300.6495 310.2383 368.8390 29409.5971 -34.2415 35.2481
ENERGY: 1500000 8.2771 12.9466 24.4687 0.0000 -10593.9742 1430.5906 0.0000 0.0000 1678.8231 -7438.8682 290.2172 -9117.6912 -7314.6109 299.6607 -300.6600 -235.7549 29547.3672 27.4684 95.5789
TCL: Running FEP window   8: Lambda1 0.35   Lambda2 0.39999999999999997 [dLambda 0.04999999999999999]
TCL: Setting parameter firsttimestep to 0
TCL: Setting parameter alchLambda to 0.35
Info: NONBONDED TABLE R-SQUARED SPACING: 0.0625
Info: NONBONDED TABLE SIZE: 705 POINTS
TCL: Setting parameter alchLambda2 to 0.39999999999999997
Info: NONBONDED TABLE R-SQUARED SPACING: 0.0625
Info: NONBONDED TABLE SIZE: 705 POINTS
TCL: Running for 1500000 steps
ETITLE: TS BOND ANGLE DIHED IMPRP ELECT VDW BOUNDARY MISC KINETIC TOTAL TEMP POTENTIAL TOTALAVG TEMPAVG PRESSURE GPRESSURE VOLUME PRESSAVG GPRESSAVG
ENERGY: 0 8.2771 12.9466 24.4687 0.0000 -10593.9752 1430.9806 0.0000 0.0000 1677.9514 -7439.3507 290.0665 -9117.3021 -7439.3507 290.0665 -292.5869 -220.4099 29547.3672 -292.5869 -220.4099
ENERGY: 300000 4.3864 13.3458 29.3901 0.0000 -10495.2218 1409.5127 0.0000 0.0000 1753.8612 -7284.7256 303.1890 -9038.5868 -7348.0098 295.9119 -64.6870 -18.5762 30067.4539 163.9209 224.1748
ENERGY: 600000 4.1880 14.6360 26.2599 0.0000 -10448.4927 1415.4774 0.0000 0.0000 1678.7272 -7309.2042 290.2006 -8987.9314 -7342.4109 296.1822 97.4057 89.1288 30369.1717 244.8375 285.6195
ENERGY: 900000 7.3980 18.0483 25.5208 0.0000 -10423.5947 1364.0306 0.0000 0.0000 1694.3334 -7314.2637 292.8984 -9008.5971 -7328.0354 296.9917 -485.1534 -420.7766 29997.7888 -46.0401 0.8111
ENERGY: 1200000 5.2913 12.5133 26.1812 0.0000 -10461.2832 1412.6650 0.0000 0.0000 1810.2841 -7194.3484 312.9428 -9004.6324 -7321.8801 298.6170 303.9241 454.1205 29623.3590 -93.5843 -33.1635
ENERGY: 1500000 4.9173 16.2120 25.2337 0.0000 -10573.6987 1431.2590 0.0000 0.0000 1771.5291 -7324.5476 306.2432 -9096.0767 -7319.0989 299.9112 380.4282 509.6053 29245.6378 -34.1063 29.1523
TCL: Running FEP window   9: Lambda1 0.39999999999999997 Lambda2 0.44999999999999996 [dLambda 0.04999999999999999]
TCL: Setting parameter firsttimestep to 0
TCL: Setting parameter alchLambda to 0.39999999999999997
Info: NONBONDED TABLE R-SQUARED SPACING: 0.0625
Info: NONBONDED TABLE SIZE: 705 POINTS
TCL: Setting parameter alchLambda2 to 0.44999999999999996
Info: NONBONDED TABLE R-SQUARED SPACING: 0.0625
Info: NONBONDED TABLE SIZE: 705 POINTS
TCL: Running for 1500000 steps
ETITLE: TS BOND ANGLE DIHED IMPRP ELECT VDW BOUNDARY MISC KINETIC TOTAL TEMP POTENTIAL TOTALAVG TEMPAVG PRESSURE GPRESSURE VOLUME PRESSAVG GPRESSAVG
ENERGY: 0 4.9173 16.2120 25.2337 0.0000 -10573.6994 1430.5111 0.0000 0.0000 1770.6529 -7326.1724 306.0917 -9096.8253 -7326.1724 306.0917 421.5359 517.0621 29245.6378 421.5359 517.0621
ENERGY: 300000 4.8968 13.2245 28.1624 0.0000 -10541.7001 1455.4599 0.0000 0.0000 1804.3424 -7235.6141 311.9156 -9039.9565 -7282.0091 303.7188 415.4608 493.5577 30024.9776 107.4906 194.9206
ENERGY: 600000 9.4196 22.0767 25.6173 0.0000 -10477.3045 1373.7497 0.0000 0.0000 1765.9249 -7280.5163 305.2744 -9046.4412 -7290.1446 303.3490 98.4967 192.5272 29367.5594 82.1278 156.6757
ENERGY: 900000 3.7676 12.3540 27.5069 0.0000 -10455.2766 1396.3424 0.0000 0.0000 1677.4391 -7337.8666 289.9779 -9015.3057 -7302.0860 301.5020 143.5306 143.5890 29694.6410 145.0196 211.6219
ENERGY: 1200000 6.1163 12.7008 26.2116 0.0000 -10355.6108 1407.5664 0.0000 0.0000 1781.9772 -7121.0385 308.0494 -8903.0157 -7288.4752 303.2550 537.0066 639.2070 29973.8881 89.3327 158.2743
ENERGY: 1500000 8.3965 15.5381 28.0821 0.0000 -10479.2814 1364.7175 0.0000 0.0000 1749.9708 -7312.5764 302.5165 -9062.5472 -7293.8863 301.7984 -222.4345 -151.0979 29613.9078 48.8382 118.9294
TCL: Running FEP window  10: Lambda1 0.44999999999999996 Lambda2 0.49999999999999994 [dLambda 0.04999999999999999]
TCL: Setting parameter firsttimestep to 0
TCL: Setting parameter alchLambda to 0.44999999999999996
Info: NONBONDED TABLE R-SQUARED SPACING: 0.0625
Info: NONBONDED TABLE SIZE: 705 POINTS
TCL: Setting parameter alchLambda2 to 0.49999999999999994
Info: NONBONDED TABLE R-SQUARED SPACING: 0.0625
Info: NONBONDED TABLE SIZE: 705 POINTS
TCL: Running for 1500000 steps
ETITLE: TS BOND ANGLE DIHED IMPRP ELECT VDW BOUNDARY MISC KINETIC TOTAL TEMP POTENTIAL TOTALAVG TEMPAVG PRESSURE GPRESSURE VOLUME PRESSAVG GPRESSAVG
ENERGY: 0 8.3965 15.5381 28.0821 0.0000 -10479.2807 1365.1201 0.0000 0.0000 1749.1315 -7313.0124 302.3714 -9062.1439 -7313.0124 302.3714 -217.5367 -133.0277 29613.9078 -217.5367 -133.0277
ENERGY: 300000 4.6844 14.0196 24.6598 0.0000 -10483.5358 1363.0137 0.0000 0.0000 1731.8938 -7345.2646 299.3915 -9077.1584 -7310.5535 304.4297 -670.2704 -647.0435 30394.6884 -314.6774 -248.8012
ENERGY: 600000 6.9842 13.7958 33.0599 0.0000 -10302.6118 1302.0501 0.0000 0.0000 1729.2116 -7217.5102 298.9278 -8946.7218 -7303.5106 301.4552 -607.5664 -568.2703 29860.3378 -196.2737 -137.1805
ENERGY: 900000 6.2170 14.8320 27.3680 0.0000 -10647.8498 1508.5437 0.0000 0.0000 1696.8228 -7394.0663 293.3288 -9090.8891 -7306.2035 301.3534 716.0709 764.8807 29670.4267 -44.3612 13.1166
ENERGY: 1200000 8.0628 14.5671 25.7969 0.0000 -10412.9576 1310.3943 0.0000 0.0000 1768.0157 -7286.1209 305.6359 -9054.1366 -7300.4772 301.7615 -1250.3833 -1158.7275 30946.2971 -109.3414 -41.4401
ENERGY: 1500000 6.8242 14.0489 27.5831 0.0000 -10459.4397 1377.9628 0.0000 0.0000 1745.1523 -7287.8684 301.6835 -9033.0208 -7302.3292 301.7736 -272.8504 -222.1345 29804.1612 -108.8519 -40.1654
TCL: Running FEP window  11: Lambda1 0.49999999999999994 Lambda2 0.5499999999999999 [dLambda 0.04999999999999999]
TCL: Setting parameter firsttimestep to 0
TCL: Setting parameter alchLambda to 0.49999999999999994
Info: NONBONDED TABLE R-SQUARED SPACING: 0.0625
Info: NONBONDED TABLE SIZE: 705 POINTS
TCL: Setting parameter alchLambda2 to 0.5499999999999999
Info: NONBONDED TABLE R-SQUARED SPACING: 0.0625
Info: NONBONDED TABLE SIZE: 705 POINTS
TCL: Running for 1500000 steps
ETITLE: TS BOND ANGLE DIHED IMPRP ELECT VDW BOUNDARY MISC KINETIC TOTAL TEMP POTENTIAL TOTALAVG TEMPAVG PRESSURE GPRESSURE VOLUME PRESSAVG GPRESSAVG
ENERGY: 0 6.8242 14.0489 27.5831 0.0000 -10459.4400 1378.6527 0.0000 0.0000 1744.2487 -7288.0824 301.5273 -9032.3312 -7288.0824 301.5273 -298.0495 -202.0004 29804.1612 -298.0495 -202.0004
ENERGY: 300000 6.7317 11.0007 25.6419 0.0000 -10590.2439 1438.5738 0.0000 0.0000 1710.5130 -7397.7828 295.6954 -9108.2958 -7327.1321 298.2357 106.3913 277.0579 29508.2064 -137.6100 -18.0901
ENERGY: 600000 6.3619 7.6207 29.5193 0.0000 -10619.2403 1489.5376 0.0000 0.0000 1767.1429 -7319.0579 305.4850 -9086.2008 -7294.3943 301.1082 619.2420 707.4016 29628.6771 63.2983 174.2298
ENERGY: 900000 7.5799 14.0897 27.6653 0.0000 -10495.3556 1389.9338 0.0000 0.0000 1688.7727 -7367.3141 291.9372 -9056.0868 -7319.3198 298.9031 -225.7539 -142.3676 30084.6750 -32.6375 67.7812
ENERGY: 1200000 7.2454 18.1869 27.7872 0.0000 -10501.4996 1425.8498 0.0000 0.0000 1793.7202 -7228.7102 310.0794 -9022.4304 -7299.7792 299.7961 473.8845 543.0809 29986.1988 24.5400 104.5717
ENERGY: 1500000 4.6016 14.3955 23.2329 0.0000 -10449.2866 1349.8861 0.0000 0.0000 1830.4200 -7226.7505 316.4237 -9057.1705 -7294.3981 300.6619 -215.8668 -209.7086 29857.7474 46.2226 116.3894
TCL: Running FEP window  12: Lambda1 0.5499999999999999 Lambda2 0.6    [dLambda 0.050000000000000044]
TCL: Setting parameter firsttimestep to 0
TCL: Setting parameter alchLambda to 0.5499999999999999
Info: NONBONDED TABLE R-SQUARED SPACING: 0.0625
Info: NONBONDED TABLE SIZE: 705 POINTS
TCL: Setting parameter alchLambda2 to 0.6
Info: NONBONDED TABLE R-SQUARED SPACING: 0.0625
Info: NONBONDED TABLE SIZE: 705 POINTS
TCL: Running for 1500000 steps
ETITLE: TS BOND ANGLE DIHED IMPRP ELECT VDW BOUNDARY MISC KINETIC TOTAL TEMP POTENTIAL TOTALAVG TEMPAVG PRESSURE GPRESSURE VOLUME PRESSAVG GPRESSAVG
ENERGY: 0 4.6016 14.3955 23.2329 0.0000 -10448.1566 1349.5926 0.0000 0.0000 1829.5404 -7226.7935 316.2716 -9056.3340 -7226.7935 316.2716 -276.5291 -196.6126 29857.7474 -276.5291 -196.6126
ENERGY: 300000 6.7893 14.1202 27.3739 0.0000 -10453.8693 1367.6698 0.0000 0.0000 1708.4742 -7329.4419 295.3429 -9037.9161 -7306.8812 302.0632 -567.6306 -553.8194 30205.8241 -467.0763 -427.4499
ENERGY: 600000 7.4039 13.0539 26.8651 0.0000 -10450.4077 1415.5116 0.0000 0.0000 1730.4879 -7257.0853 299.1485 -8987.5732 -7305.8656 300.5914 515.0862 569.1696 29765.9883 -79.5161 -30.2627
ENERGY: 900000 5.6942 19.1887 24.4736 0.0000 -10479.6532 1374.2298 0.0000 0.0000 1713.4578 -7342.6091 296.2045 -9056.0669 -7306.2786 300.1263 -428.5924 -304.0029 29964.2564 -185.1397 -129.6214
ENERGY: 1200000 4.5347 10.2836 27.2598 0.0000 -10448.8725 1396.6038 0.0000 0.0000 1699.5402 -7310.6503 293.7985 -9010.1905 -7301.4073 300.2119 -84.2187 25.0366 30453.6321 -156.6658 -104.4170
ENERGY: 1500000 2.5999 12.3861 31.2071 0.0000 -10388.6571 1351.4150 0.0000 0.0000 1810.0237 -7181.0253 312.8978 -8991.0490 -7291.5959 301.2615 -223.1528 -151.6325 29794.4325 -250.9770 -195.2990
TCL: Running FEP window  13: Lambda1 0.6    Lambda2 0.65   [dLambda 0.050000000000000044]
TCL: Setting parameter firsttimestep to 0
TCL: Setting parameter alchLambda to 0.6
Info: NONBONDED TABLE R-SQUARED SPACING: 0.0625
Info: NONBONDED TABLE SIZE: 705 POINTS
TCL: Setting parameter alchLambda2 to 0.65
Info: NONBONDED TABLE R-SQUARED SPACING: 0.0625
Info: NONBONDED TABLE SIZE: 705 POINTS
TCL: Running for 1500000 steps
ETITLE: TS BOND ANGLE DIHED IMPRP ELECT VDW BOUNDARY MISC KINETIC TOTAL TEMP POTENTIAL TOTALAVG TEMPAVG PRESSURE GPRESSURE VOLUME PRESSAVG GPRESSAVG
ENERGY: 0 2.5999 12.3861 31.2071 0.0000 -10389.0122 1352.9085 0.0000 0.0000 1809.1812 -7180.7295 312.7521 -8989.9107 -7180.7295 312.7521 -219.6657 -122.9595 29794.4325 -219.6657 -122.9595
ENERGY: 300000 4.7900 18.2804 28.3117 0.0000 -10440.8650 1328.7768 0.0000 0.0000 1761.9549 -7298.7512 304.5881 -9060.7060 -7299.7224 300.6755 -512.7970 -438.6831 30227.2919 -335.9747 -283.6678
ENERGY: 600000 4.1378 19.6665 22.8171 0.0000 -10512.8160 1441.8772 0.0000 0.0000 1753.1569 -7271.1605 303.0672 -9024.3174 -7283.8382 302.0099 454.6309 468.4060 29864.1641 -103.1825 -50.5216
ENERGY: 900000 4.6904 12.9082 29.3899 0.0000 -10585.7892 1404.5967 0.0000 0.0000 1754.5964 -7379.6076 303.3161 -9134.2039 -7299.1333 300.7801 -134.8297 -46.7185 30004.1678 -104.4842 -41.6802
ENERGY: 1200000 5.5468 17.8290 25.9467 0.0000 -10470.4833 1370.4948 0.0000 0.0000 1735.4777 -7315.1883 300.0110 -9050.6660 -7296.6233 300.5543 -450.7765 -436.7491 30014.5991 -113.5013 -56.7860
ENERGY: 1500000 5.4731 21.6980 29.0618 0.0000 -10485.2413 1422.2277 0.0000 0.0000 1775.3625 -7231.4181 306.9059 -9006.7807 -7287.8864 301.1966 180.3519 194.0473 30041.9770 -54.1763 -0.3532
TCL: Running FEP window  14: Lambda1 0.65   Lambda2 0.7000000000000001 [dLambda 0.050000000000000044]
TCL: Setting parameter firsttimestep to 0
TCL: Setting parameter alchLambda to 0.65
Info: NONBONDED TABLE R-SQUARED SPACING: 0.0625
Info: NONBONDED TABLE SIZE: 705 POINTS
TCL: Setting parameter alchLambda2 to 0.7000000000000001
Info: NONBONDED TABLE R-SQUARED SPACING: 0.0625
Info: NONBONDED TABLE SIZE: 705 POINTS
TCL: Running for 1500000 steps
ETITLE: TS BOND ANGLE DIHED IMPRP ELECT VDW BOUNDARY MISC KINETIC TOTAL TEMP POTENTIAL TOTALAVG TEMPAVG PRESSURE GPRESSURE VOLUME PRESSAVG GPRESSAVG
ENERGY: 0 5.4731 21.6980 29.0618 0.0000 -10486.4612 1421.4825 0.0000 0.0000 1774.5234 -7234.2224 306.7608 -9008.7458 -7234.2224 306.7608 126.5768 200.3419 30041.9770 126.5768 200.3419
ENERGY: 300000 5.7930 15.0748 25.4478 0.0000 -10432.7912 1385.9213 0.0000 0.0000 1728.0057 -7272.5484 298.7193 -9000.5541 -7279.3174 302.6904 -98.5107 -21.6387 29851.1585 -60.5588 16.0155
ENERGY: 600000 5.7993 17.6009 27.0260 0.0000 -10424.7725 1371.5080 0.0000 0.0000 1771.3319 -7231.5064 306.2091 -9002.8383 -7252.8885 303.9643 -135.3286 4.2522 30226.9441 -53.1884 24.3752
ENERGY: 900000 3.6662 17.5182 30.3090 0.0000 -10521.6829 1423.9816 0.0000 0.0000 1751.7485 -7294.4594 302.8238 -9046.2079 -7274.8660 302.2040 577.6044 656.7749 29165.9299 17.2571 98.0321
ENERGY: 1200000 4.7556 20.1004 25.1405 0.0000 -10520.4219 1426.3555 0.0000 0.0000 1749.6888 -7294.3811 302.4677 -9044.0698 -7273.4217 301.9789 -45.4062 44.2054 30268.7224 -44.1142 38.6869
ENERGY: 1500000 5.8328 16.7620 29.9691 0.0000 -10433.2611 1400.8849 0.0000 0.0000 1722.8104 -7257.0019 297.8212 -8979.8123 -7280.4077 301.7167 567.6724 591.0673 29711.3140 61.5699 136.5674
TCL: Running FEP window  15: Lambda1 0.7000000000000001 Lambda2 0.7500000000000001 [dLambda 0.050000000000000044]
TCL: Setting parameter firsttimestep to 0
TCL: Setting parameter alchLambda to 0.7000000000000001
Info: NONBONDED TABLE R-SQUARED SPACING: 0.0625
Info: NONBONDED TABLE SIZE: 705 POINTS
TCL: Setting parameter alchLambda2 to 0.7500000000000001
Info: NONBONDED TABLE R-SQUARED SPACING: 0.0625
Info: NONBONDED TABLE SIZE: 705 POINTS
TCL: Running for 1500000 steps
ETITLE: TS BOND ANGLE DIHED IMPRP ELECT VDW BOUNDARY MISC KINETIC TOTAL TEMP POTENTIAL TOTALAVG TEMPAVG PRESSURE GPRESSURE VOLUME PRESSAVG GPRESSAVG
ENERGY: 0 5.8328 16.7620 29.9691 0.0000 -10433.5533 1399.8651 0.0000 0.0000 1721.9291 -7259.1952 297.6689 -8981.1243 -7259.1952 297.6689 499.4922 591.1459 29711.3140 499.4922 591.1459
ENERGY: 300000 3.3271 10.3873 31.8702 0.0000 -10614.0407 1506.8244 0.0000 0.0000 1689.3017 -7372.3300 292.0286 -9061.6318 -7293.7818 297.8397 1205.5091 1220.4467 29696.1749 419.3711 450.0509
ENERGY: 600000 7.9162 15.5962 28.2998 0.0000 -10395.8132 1279.5457 0.0000 0.0000 1741.2044 -7323.2510 301.0010 -9064.4554 -7310.8620 298.5677 -1263.2088 -1184.4061 30053.6124 160.7604 211.1324
ENERGY: 900000 8.6446 11.0101 25.7050 0.0000 -10339.6467 1310.1259 0.0000 0.0000 1821.8319 -7162.3291 314.9390 -8984.1610 -7296.9464 301.0235 -757.7075 -640.3189 30078.5198 47.3421 117.2446
ENERGY: 1200000 8.5136 14.4860 27.8136 0.0000 -10559.9198 1443.8229 0.0000 0.0000 1681.9557 -7383.3279 290.7587 -9065.2837 -7295.2999 300.5609 96.3678 180.6828 30144.3038 62.6153 133.5914
ENERGY: 1500000 6.9341 11.0172 25.6076 0.0000 -10585.7037 1477.0072 0.0000 0.0000 1736.2415 -7328.8961 300.1431 -9065.1375 -7300.4219 300.1939 312.5889 395.7867 30133.2787 66.0948 135.1150
TCL: Running FEP window  16: Lambda1 0.7500000000000001 Lambda2 0.8000000000000002 [dLambda 0.050000000000000044]
TCL: Setting parameter firsttimestep to 0
TCL: Setting parameter alchLambda to 0.7500000000000001
Info: NONBONDED TABLE R-SQUARED SPACING: 0.0625
Info: NONBONDED TABLE SIZE: 705 POINTS
TCL: Setting parameter alchLambda2 to 0.8000000000000002
Info: NONBONDED TABLE R-SQUARED SPACING: 0.0625
Info: NONBONDED TABLE SIZE: 705 POINTS
TCL: Running for 1500000 steps
ETITLE: TS BOND ANGLE DIHED IMPRP ELECT VDW BOUNDARY MISC KINETIC TOTAL TEMP POTENTIAL TOTALAVG TEMPAVG PRESSURE GPRESSURE VOLUME PRESSAVG GPRESSAVG
ENERGY: 0 6.9341 11.0172 25.6076 0.0000 -10587.3685 1477.3620 0.0000 0.0000 1735.3492 -7331.0983 299.9888 -9066.4475 -7331.0983 299.9888 335.1584 417.3056 30133.2787 335.1584 417.3056
ENERGY: 300000 4.7001 14.5551 32.9385 0.0000 -10368.1377 1320.9325 0.0000 0.0000 1742.3854 -7252.6261 301.2052 -8995.0115 -7296.0248 301.4137 -524.2370 -465.9721 30246.1612 -60.7118 6.1425
ENERGY: 600000 10.8517 14.1885 26.5362 0.0000 -10587.7436 1444.6211 0.0000 0.0000 1773.4469 -7318.0992 306.5747 -9091.5461 -7306.3362 301.7464 -29.3660 75.0289 30019.1977 72.0929 140.3453
ENERGY: 900000 2.7406 15.7852 26.7067 0.0000 -10498.4268 1347.2427 0.0000 0.0000 1729.0017 -7376.9499 298.8915 -9105.9515 -7310.0506 301.7570 -530.7281 -457.3895 30200.4021 78.9325 146.7016
ENERGY: 1200000 3.4496 12.5150 26.6794 0.0000 -10694.9946 1541.2834 0.0000 0.0000 1745.6882 -7365.3790 301.7761 -9111.0672 -7312.5031 301.7638 1210.4726 1313.2520 29485.0194 128.1207 197.7624
ENERGY: 1500000 6.3788 15.4902 25.1766 0.0000 -10368.3318 1369.6551 0.0000 0.0000 1675.4909 -7276.1402 289.6412 -8951.6311 -7305.5174 301.0768 54.2729 77.4650 30314.5718 51.3237 115.1716
TCL: Running FEP window  17: Lambda1 0.8000000000000002 Lambda2 0.8500000000000002 [dLambda 0.050000000000000044]
TCL: Setting parameter firsttimestep to 0
TCL: Setting parameter alchLambda to 0.8000000000000002
Info: NONBONDED TABLE R-SQUARED SPACING: 0.0625
Info: NONBONDED TABLE SIZE: 705 POINTS
TCL: Setting parameter alchLambda2 to 0.8500000000000002
Info: NONBONDED TABLE R-SQUARED SPACING: 0.0625
Info: NONBONDED TABLE SIZE: 705 POINTS
TCL: Running for 1500000 steps
ETITLE: TS BOND ANGLE DIHED IMPRP ELECT VDW BOUNDARY MISC KINETIC TOTAL TEMP POTENTIAL TOTALAVG TEMPAVG PRESSURE GPRESSURE VOLUME PRESSAVG GPRESSAVG
ENERGY: 0 6.3788 15.4902 25.1766 0.0000 -10369.5126 1369.9731 0.0000 0.0000 1674.6548 -7277.8392 289.4966 -8952.4940 -7277.8392 289.4966 12.4980 100.4962 30314.5718 12.4980 100.4962
ENERGY: 300000 6.3565 13.7148 27.0084 0.0000 -10465.6819 1387.2088 0.0000 0.0000 1729.1567 -7302.2367 298.9183 -9031.3934 -7311.0159 295.0929 -136.8024 -60.9456 30209.9329 88.7689 171.3271
ENERGY: 600000 3.8786 12.4010 25.3719 0.0000 -10508.4246 1403.3223 0.0000 0.0000 1692.3966 -7371.0542 292.5636 -9063.4508 -7311.6497 296.7884 136.9940 212.3946 29731.6111 130.0575 203.4524
ENERGY: 900000 8.8352 16.4178 28.8751 0.0000 -10537.5305 1414.9523 0.0000 0.0000 1790.6098 -7277.8403 309.5417 -9068.4501 -7313.5588 298.9763 126.7863 178.0315 29791.6818 121.2974 181.5940
ENERGY: 1200000 4.7170 14.2558 27.5661 0.0000 -10454.0007 1338.0263 0.0000 0.0000 1747.6404 -7321.7951 302.1136 -9069.4356 -7316.6640 298.3816 -299.1242 -226.2677 29644.4996 10.8559 69.1299
ENERGY: 1500000 6.2559 16.1848 28.5446 0.0000 -10714.6456 1503.1907 0.0000 0.0000 1721.4494 -7439.0202 297.5860 -9160.4696 -7322.4174 299.1060 425.4777 465.7723 30002.3616 57.4435 114.6675
TCL: Running FEP window  18: Lambda1 0.8500000000000002 Lambda2 0.9000000000000002 [dLambda 0.050000000000000044]
TCL: Setting parameter firsttimestep to 0
TCL: Setting parameter alchLambda to 0.8500000000000002
Info: NONBONDED TABLE R-SQUARED SPACING: 0.0625
Info: NONBONDED TABLE SIZE: 705 POINTS
TCL: Setting parameter alchLambda2 to 0.9000000000000002
Info: NONBONDED TABLE R-SQUARED SPACING: 0.0625
Info: NONBONDED TABLE SIZE: 705 POINTS
TCL: Running for 1500000 steps
ETITLE: TS BOND ANGLE DIHED IMPRP ELECT VDW BOUNDARY MISC KINETIC TOTAL TEMP POTENTIAL TOTALAVG TEMPAVG PRESSURE GPRESSURE VOLUME PRESSAVG GPRESSAVG
ENERGY: 0 6.2558 16.1848 28.5446 0.0000 -10715.8544 1502.3938 0.0000 0.0000 1720.6047 -7441.8706 297.4400 -9162.4753 -7441.8706 297.4400 394.8107 474.6242 30002.3616 394.8107 474.6242
ENERGY: 300000 6.4825 11.9393 31.0670 0.0000 -10513.5222 1433.3201 0.0000 0.0000 1723.2881 -7307.4252 297.9038 -9030.7133 -7343.2350 297.1656 178.1720 232.2438 30185.0731 519.9970 581.3254
ENERGY: 600000 4.0681 15.2247 23.7124 0.0000 -10509.9592 1412.3193 0.0000 0.0000 1756.6757 -7297.9590 303.6755 -9054.6347 -7335.1306 298.2774 86.2758 105.0121 30188.6720 248.7073 298.3060
ENERGY: 900000 7.0742 13.4480 25.6540 0.0000 -10538.4740 1413.8166 0.0000 0.0000 1702.3677 -7376.1133 294.2873 -9078.4811 -7336.5569 298.1733 -194.9975 -65.8396 29987.2604 164.4900 236.2304
ENERGY: 1200000 5.9499 18.9027 32.7671 0.0000 -10519.7765 1344.0250 0.0000 0.0000 1767.8193 -7350.3124 305.6019 -9118.1317 -7331.8665 299.5226 -413.4751 -371.1594 29668.5725 30.1376 91.5641
ENERGY: 1500000 8.1370 10.6458 27.8343 0.0000 -10576.5663 1438.9377 0.0000 0.0000 1764.4966 -7326.5148 305.0275 -9091.0115 -7328.7763 299.9498 235.5830 323.3651 29846.7493 2.2987 67.1270
TCL: Running FEP window  19: Lambda1 0.9000000000000002 Lambda2 0.9500000000000003 [dLambda 0.050000000000000044]
TCL: Setting parameter firsttimestep to 0
TCL: Setting parameter alchLambda to 0.9000000000000002
Info: NONBONDED TABLE R-SQUARED SPACING: 0.0625
Info: NONBONDED TABLE SIZE: 705 POINTS
TCL: Setting parameter alchLambda2 to 0.9500000000000003
Info: NONBONDED TABLE R-SQUARED SPACING: 0.0625
Info: NONBONDED TABLE SIZE: 705 POINTS
TCL: Running for 1500000 steps
ETITLE: TS BOND ANGLE DIHED IMPRP ELECT VDW BOUNDARY MISC KINETIC TOTAL TEMP POTENTIAL TOTALAVG TEMPAVG PRESSURE GPRESSURE VOLUME PRESSAVG GPRESSAVG
ENERGY: 0 8.1370 10.6458 27.8343 0.0000 -10578.1305 1439.0277 0.0000 0.0000 1763.6427 -7328.8429 304.8799 -9092.4856 -7328.8429 304.8799 263.9019 343.2548 29846.7493 263.9019 343.2548
ENERGY: 300000 10.3394 18.0725 25.2019 0.0000 -10402.3150 1330.1232 0.0000 0.0000 1737.9594 -7280.6186 300.4400 -9018.5780 -7298.2465 303.1711 -393.4357 -334.1182 30192.9656 263.0640 319.3502
ENERGY: 600000 3.2666 12.9641 29.3163 0.0000 -10540.1723 1411.3696 0.0000 0.0000 1718.7397 -7364.5160 297.1175 -9083.2557 -7308.6028 300.3428 114.3693 169.8570 29888.0036 335.9035 382.8334
ENERGY: 900000 7.1655 18.2232 27.5823 0.0000 -10472.3033 1384.1767 0.0000 0.0000 1750.7072 -7284.4483 302.6438 -9035.1555 -7305.5379 300.2685 -346.9794 -278.1742 30344.1662 201.9351 254.6862
ENERGY: 1200000 11.5268 13.9954 27.3532 0.0000 -10501.6060 1380.2487 0.0000 0.0000 1671.4495 -7397.0324 288.9425 -9068.4819 -7305.2757 299.4824 -506.2343 -431.3767 30109.4775 72.1859 128.1133
ENERGY: 1500000 4.6988 17.2390 28.6603 0.0000 -10455.7874 1347.6750 0.0000 0.0000 1696.2681 -7361.2462 293.2329 -9057.5143 -7312.5275 298.5467 -365.1834 -261.9024 30030.8812 -15.7807 45.0953
TCL: Running FEP window  20: Lambda1 0.9500000000000003 Lambda2 1.0    [dLambda 0.04999999999999971]
TCL: Setting parameter firsttimestep to 0
TCL: Setting parameter alchLambda to 0.9500000000000003
Info: NONBONDED TABLE R-SQUARED SPACING: 0.0625
Info: NONBONDED TABLE SIZE: 705 POINTS
TCL: Setting parameter alchLambda2 to 1.0
Info: NONBONDED TABLE R-SQUARED SPACING: 0.0625
Info: NONBONDED TABLE SIZE: 705 POINTS
TCL: Running for 1500000 steps
ETITLE: TS BOND ANGLE DIHED IMPRP ELECT VDW BOUNDARY MISC KINETIC TOTAL TEMP POTENTIAL TOTALAVG TEMPAVG PRESSURE GPRESSURE VOLUME PRESSAVG GPRESSAVG
ENERGY: 0 4.6988 17.2390 28.6603 0.0000 -10457.2394 1347.1908 0.0000 0.0000 1695.3731 -7364.0774 293.0782 -9059.4505 -7364.0774 293.0782 -333.9296 -248.3392 30030.8812 -333.9296 -248.3392
ENERGY: 300000 6.1289 16.2405 25.6728 0.0000 -10361.1470 1316.6032 0.0000 0.0000 1784.7625 -7211.7392 308.5309 -8996.5017 -7307.9745 298.9508 -238.7221 -168.4823 29875.7732 262.6419 318.5891
ENERGY: 600000 7.2086 18.7123 22.3694 0.0000 -10462.8811 1367.3322 0.0000 0.0000 1716.7481 -7330.5104 296.7733 -9047.2585 -7302.4823 302.5513 -422.8210 -464.6232 30081.6345 174.8988 219.6355
ENERGY: 900000 8.4666 15.0838 26.1522 0.0000 -10568.7812 1404.6235 0.0000 0.0000 1721.0663 -7393.3888 297.5197 -9114.4552 -7328.5856 301.4377 -182.8506 -125.9602 30093.1695 176.2604 219.8499
ENERGY: 1200000 4.8732 15.6040 26.9175 0.0000 -10465.6943 1342.6149 0.0000 0.0000 1766.2604 -7309.4243 305.3324 -9075.6847 -7330.9772 301.2449 -182.1189 -26.9932 29435.6264 58.0167 118.2569
ENERGY: 1500000 5.8526 15.9109 24.8474 0.0000 -10493.0755 1427.5211 0.0000 0.0000 1758.1791 -7260.7645 303.9354 -9018.9436 -7328.2358 301.2435 239.2570 264.6875 30420.4114 32.4121 90.8808
TCL: Exiting due to exit command.
