Info: SIMULATION PARAMETERS:
Info: TIMESTEP               2
Info: NUMBER OF STEPS        0
Info: STEPS PER CYCLE        10
Info: PERIODIC CELL BASIS 1  29.996 0 0
Info: PERIODIC CELL BASIS 2  0 33.1773 0
Info: PERIODIC CELL BASIS 3  0 0 30.4107
Info: PERIODIC CELL CENTER   0 0 0
Info: WRAPPING WATERS AROUND PERIODIC BOUNDARIES ON OUTPUT.
Info: WRAPPING ALL CLUSTERS AROUND PERIODIC BOUNDARIES ON OUTPUT.
Info: FIRST LDB TIMESTEP     50
Info: LAST LDB TIMESTEP     -1
Info: HOM BACKGROUND SCALING 1
Info: PME BACKGROUND SCALING 1
Info: MIN ATOMS PER PATCH    40
Info: EMPTY PATCH LOAD       40 ATOMS
Info: VELOCITY FILE          mobley_2725215_equil.vel
Info: CENTER OF MASS MOVING INITIALLY? NO
Info: DIELECTRIC             1
Info: EXCLUDE                SCALED ONE-FOUR
Info: 1-4 ELECTROSTATICS SCALED BY 0.833333
Info: MODIFIED 1-4 VDW PARAMETERS WILL BE USED
Info: DCD FILENAME           mobley_2725215_prod.dcd
Info: DCD FREQUENCY          100000
Info: DCD FIRST STEP         100000
Info: DCD FILE WILL CONTAIN UNIT CELL DATA
Info: XST FILENAME           mobley_2725215_prod.xst
Info: XST FREQUENCY          100000
Info: NO VELOCITY DCD OUTPUT
Info: NO FORCE DCD OUTPUT
Info: OUTPUT FILENAME        mobley_2725215_prod
Info: BINARY OUTPUT FILES WILL BE USED
Info: RESTART FILENAME       mobley_2725215_prod.restart
Info: RESTART FREQUENCY      100000
Info: BINARY RESTART FILES WILL BE USED
Info: CUTOFF                 9
Info: PAIRLIST DISTANCE      11
Info: PAIRLIST SHRINK RATE   0.01
Info: PAIRLIST GROW RATE     0.01
Info: PAIRLIST TRIGGER       0.3
Info: PAIRLISTS PER CYCLE    2
Info: PAIRLISTS ENABLED
Info: MARGIN                 2
Info: HYDROGEN GROUP CUTOFF  2.5
Info: PATCH DIMENSION        15.5
Info: ENERGY OUTPUT STEPS    100000
Info: ENERGY EVALUATION STEPS    100000
Info: OUTPUT ENERGY PRECISION 4
Info: CROSSTERM ENERGY INCLUDED IN DIHEDRAL
Info: TIMING OUTPUT STEPS    1000000
Info: PRESSURE OUTPUT STEPS  100000
Info: ALCHEMICAL FEP ON
Info: FEP CURRENT LAMBDA VALUE     0
Info: FEP COMPARISON LAMBDA VALUE  0.05
Info: FEP INTRA-ALCHEMICAL NON-BONDED INTERACTIONS WILL BE RETAINED
Info: FEP INTRA-ALCHEMICAL BONDED INTERACTIONS WILL BE RETAINED
Info: FEP VDW SHIFTING COEFFICIENT 5
Info: FEP ELEC. ACTIVE FOR ANNIHILATED PARTICLES BETWEEN LAMBDA = 0 AND LAMBDA = 0.5
Info: FEP ELEC. ACTIVE FOR EXNIHILATED PARTICLES BETWEEN LAMBDA = 0.5 AND LAMBDA = 1
Info: FEP VDW ACTIVE FOR ANNIHILATED PARTICLES BETWEEN LAMBDA = 0 AND LAMBDA = 1
Info: FEP VDW ACTIVE FOR EXNIHILATED PARTICLES BETWEEN LAMBDA = 0 AND LAMBDA = 1
Info: FEP BOND ACTIVE FOR ANNIHILATED PARTICLES BETWEEN LAMBDA = 1 AND LAMBDA = 1
Info: FEP BOND ACTIVE FOR EXNIHILATED PARTICLES BETWEEN LAMBDA = 0 AND LAMBDA = 0
Info: LANGEVIN DYNAMICS ACTIVE
Info: LANGEVIN TEMPERATURE   300
Info: LANGEVIN USING BBK INTEGRATOR
Info: LANGEVIN DAMPING COEFFICIENT IS 1 INVERSE PS
Info: LANGEVIN DYNAMICS APPLIED TO HYDROGENS
Info: LANGEVIN PISTON PRESSURE CONTROL ACTIVE
Info:        TARGET PRESSURE IS 1.01325 BAR
Info:     OSCILLATION PERIOD IS 50 FS
Info:             DECAY TIME IS 25 FS
Info:     PISTON TEMPERATURE IS 300 K
Info:       PRESSURE CONTROL IS GROUP-BASED
Info:    INITIAL STRAIN RATE IS -0.000260082 -0.000260082 -0.000260082
Info:       CELL FLUCTUATION IS ISOTROPIC
Info: PARTICLE MESH EWALD (PME) ACTIVE
Info: PME TOLERANCE               1e-06
Info: PME EWALD COEFFICIENT       0.348832
Info: PME INTERPOLATION ORDER     4
Info: PME GRID DIMENSIONS         32 36 32
Info: PME MAXIMUM GRID SPACING    1
Info: PME CALCULATION WILL BE PERFORMED ON GPU
Info: FULL ELECTROSTATIC EVALUATION FREQUENCY      2
Info: USING VERLET I (r-RESPA) MTS SCHEME.
Info: C1 SPLITTING OF LONG RANGE ELECTROSTATICS
Info: PLACING ATOMS IN PATCHES BY HYDROGEN GROUPS
Info: RIGID BONDS TO HYDROGEN : ALL
Info:         ERROR TOLERANCE : 1e-08
Info:          MAX ITERATIONS : 100
Info: RIGID WATER USING SETTLE ALGORITHM
Info: RANDOM NUMBER SEED     1744097994
Info: USE HYDROGEN BONDS?    NO
Info: Using AMBER format force field!
Info: AMBER PARM FILE        mobley_2725215.prmtop
Info: COORDINATE PDB         mobley_2725215.pdb
Info: Exclusions will be read from PARM file!
Info: SCNB (VDW SCALING)     2
Info: USING ARITHMETIC MEAN TO COMBINE L-J SIGMA PARAMETERS
Info: BINARY COORDINATES     mobley_2725215_equil.coor
Info: SUMMARY OF PARAMETERS:
Info: 14 BONDS
Info: 21 ANGLES
Info:   21 HARMONIC
Info:   0 COSINE-BASED
Info: 10 DIHEDRAL
Info: 0 IMPROPER
Info: 0 CROSSTERM
Info: 0 VDW
Info: 55 VDW_PAIRS
Info: 0 NBTHOLE_PAIRS
Info: To read alchdata from file: mobley_2725215.pdb
Info: To read alchflag data from column: 5
Info: STRUCTURE SUMMARY:
Info: 2937 ATOMS
Info: 2937 BONDS
Info: 75 ANGLES
Info: 106 DIHEDRALS
Info: 0 IMPROPERS
Info: 0 CROSSTERMS
Info: 3108 EXCLUSIONS
Info: 2914 RIGID BONDS
Info: ALCH: 0 ATOMS TO DISAPPEAR IN FINAL STATE
Info: ALCH: 42 ATOMS TO APPEAR IN FINAL STATE
Info: 5897 DEGREES OF FREEDOM
Info: 988 HYDROGEN GROUPS
Info: 4 ATOMS IN LARGEST HYDROGEN GROUP
Info: 988 MIGRATION GROUPS
Info: 4 ATOMS IN LARGEST MIGRATION GROUP
Info: TOTAL MASS = 17730.8 amu
Info: TOTAL CHARGE = 8.19564e-08 e
Info: MASS DENSITY = 0.972875 g/cm^3
Info: ATOM DENSITY = 0.097045 atoms/A^3
Info: ADDED 0 IMPLICIT EXCLUSIONS
Info: NONBONDED TABLE R-SQUARED SPACING: 0.0625
Info: NONBONDED TABLE SIZE: 705 POINTS
Info: REMOVING COM VELOCITY 0.174478 -0.0143555 0.104715
Info: Use 3D box decompostion in PME FFT.
Info: Updated CUDA force table with 4096 elements.
Info: Updated CUDA LJ table with 10 x 10 elements.
Info: Found 43 unique exclusion lists needing 240 bytes
TCL: Running for 1500000 steps
ETITLE: TS BOND ANGLE DIHED IMPRP ELECT VDW BOUNDARY MISC KINETIC TOTAL TEMP POTENTIAL TOTALAVG TEMPAVG PRESSURE GPRESSURE VOLUME PRESSAVG GPRESSAVG
ENERGY: 0 6.6875 13.6037 27.0087 0.0000 -10660.0471 1501.8162 0.0000 0.0000 1745.9344 -7364.9966 297.9800 -9110.9310 -7364.9966 297.9800 697.9757 766.8321 30264.3141 697.9757 766.8321
ENERGY: 300000 8.0172 16.1810 25.0249 0.0000 -10638.9306 1345.3654 0.0000 0.0000 1777.4797 -7466.8623 303.3639 -9244.3420 -7386.4753 303.5294 -995.1763 -890.8425 30050.6980 -271.8726 -221.6024
ENERGY: 600000 8.7657 25.7960 27.2325 0.0000 -10647.6159 1360.9414 0.0000 0.0000 1724.4812 -7500.3990 294.3186 -9224.8803 -7419.7840 300.4922 -571.5528 -514.0099 29812.5922 -242.3976 -187.4150
ENERGY: 900000 10.2257 20.8952 29.3772 0.0000 -10519.5094 1345.7661 0.0000 0.0000 1783.8551 -7329.3901 304.4520 -9113.2452 -7398.6736 301.4565 -533.6503 -447.4316 30055.8266 -171.8884 -113.4178
ENERGY: 1200000 5.0307 18.5985 26.4191 0.0000 -10510.1438 1360.8092 0.0000 0.0000 1748.0590 -7351.2272 298.3426 -9099.2862 -7398.0670 301.0562 -373.5899 -316.5016 30208.9957 -262.7570 -199.3826
ENERGY: 1500000 9.1319 18.7154 25.9116 0.0000 -10631.2503 1377.0689 0.0000 0.0000 1806.6586 -7393.7639 308.3439 -9200.4225 -7399.6182 301.3790 -576.3299 -484.2832 29748.2340 -233.5460 -171.4055
TCL: Running FEP window   2: Lambda1 0.05   Lambda2 0.1    [dLambda 0.05  ]
TCL: Setting parameter firsttimestep to 0
TCL: Setting parameter alchLambda to 0.05
Info: NONBONDED TABLE R-SQUARED SPACING: 0.0625
Info: NONBONDED TABLE SIZE: 705 POINTS
TCL: Setting parameter alchLambda2 to 0.1
Info: NONBONDED TABLE R-SQUARED SPACING: 0.0625
Info: NONBONDED TABLE SIZE: 705 POINTS
TCL: Running for 1500000 steps
ETITLE: TS BOND ANGLE DIHED IMPRP ELECT VDW BOUNDARY MISC KINETIC TOTAL TEMP POTENTIAL TOTALAVG TEMPAVG PRESSURE GPRESSURE VOLUME PRESSAVG GPRESSAVG
ENERGY: 0 9.1320 18.7154 25.9116 0.0000 -10631.2505 1382.6177 0.0000 0.0000 1805.7897 -7389.0841 308.1956 -9194.8738 -7389.0841 308.1956 -547.8608 -463.6996 29748.2340 -547.8608 -463.6996
ENERGY: 300000 9.4974 11.3935 30.1509 0.0000 -10589.4491 1361.1289 0.0000 0.0000 1773.9374 -7403.3410 302.7593 -9177.2785 -7360.0935 306.5171 -377.4515 -292.7812 29623.9534 -174.0941 -102.8003
ENERGY: 600000 5.6760 19.9420 27.4686 0.0000 -10592.8462 1412.7425 0.0000 0.0000 1782.9583 -7344.0587 304.2989 -9127.0171 -7362.6362 304.6299 415.0105 529.5146 29382.6606 -71.2968 7.9514
ENERGY: 900000 5.8842 20.3268 25.7705 0.0000 -10518.2888 1330.2948 0.0000 0.0000 1770.1218 -7365.8907 302.1081 -9136.0124 -7366.8375 303.2556 -545.9227 -498.6118 29796.6197 -132.7291 -53.8357
ENERGY: 1200000 6.7928 16.8078 27.1335 0.0000 -10728.1835 1456.1710 0.0000 0.0000 1762.9094 -7458.3690 300.8772 -9221.2784 -7369.2143 303.1301 323.6915 418.1446 29768.5185 -41.3330 32.9834
ENERGY: 1500000 7.1069 20.3084 27.3799 0.0000 -10719.5198 1518.3693 0.0000 0.0000 1766.1153 -7380.2399 301.4243 -9146.3552 -7373.9260 303.0249 873.9901 923.4407 29589.1394 46.5481 118.7451
TCL: Running FEP window   3: Lambda1 0.1    Lambda2 0.15000000000000002 [dLambda 0.05000000000000002]
TCL: Setting parameter firsttimestep to 0
TCL: Setting parameter alchLambda to 0.1
Info: NONBONDED TABLE R-SQUARED SPACING: 0.0625
Info: NONBONDED TABLE SIZE: 705 POINTS
TCL: Setting parameter alchLambda2 to 0.15000000000000002
Info: NONBONDED TABLE R-SQUARED SPACING: 0.0625
Info: NONBONDED TABLE SIZE: 705 POINTS
TCL: Running for 1500000 steps
ETITLE: TS BOND ANGLE DIHED IMPRP ELECT VDW BOUNDARY MISC KINETIC TOTAL TEMP POTENTIAL TOTALAVG TEMPAVG PRESSURE GPRESSURE VOLUME PRESSAVG GPRESSAVG
ENERGY: 0 7.1069 20.3084 27.3799 0.0000 -10719.5195 1525.5536 0.0000 0.0000 1765.2505 -7373.9201 301.2767 -9139.1706 -7373.9201 301.2767 855.1201 947.4435 29589.1394 855.1201 947.4435
ENERGY: 300000 6.7158 14.0209 27.6389 0.0000 -10479.4770 1332.8018 0.0000 0.0000 1811.2337 -7287.0659 309.1247 -9098.2996 -7357.2652 300.1321 -280.0377 -321.3337 30152.0385 496.6299 531.9678
ENERGY: 600000 7.1248 13.7973 28.7877 0.0000 -10595.0739 1407.5209 0.0000 0.0000 1781.4124 -7356.4307 304.0351 -9137.8431 -7388.1987 298.9430 -361.7901 -332.2774 30471.3273 450.6776 489.7645
ENERGY: 900000 5.2998 19.7174 28.9087 0.0000 -10819.4821 1538.7258 0.0000 0.0000 1732.8470 -7493.9833 295.7464 -9226.8303 -7400.1680 300.0569 1076.9649 1165.5854 29560.9547 379.9496 435.5489
ENERGY: 1200000 5.7513 22.2931 28.9966 0.0000 -10745.9111 1493.1211 0.0000 0.0000 1812.2840 -7383.4651 309.3040 -9195.7491 -7393.7152 301.3739 619.7211 686.9655 29431.9069 263.7496 319.7812
ENERGY: 1500000 6.2758 19.5743 31.0194 0.0000 -10635.9884 1412.2067 0.0000 0.0000 1737.1239 -7429.7882 296.4763 -9166.9121 -7395.8507 301.2277 303.2556 306.3119 29805.1093 193.9110 243.9007
TCL: Running FEP window   4: Lambda1 0.15000000000000002 Lambda2 0.2    [dLambda 0.04999999999999999]
TCL: Setting parameter firsttimestep to 0
TCL: Setting parameter alchLambda to 0.15000000000000002
Info: NONBONDED TABLE R-SQUARED SPACING: 0.0625
Info: NONBONDED TABLE SIZE: 705 POINTS
TCL: Setting parameter alchLambda2 to 0.2
Info: NONBONDED TABLE R-SQUARED SPACING: 0.0625
Info: NONBONDED TABLE SIZE: 705 POINTS
TCL: Running for 1500000 steps
ETITLE: TS BOND ANGLE DIHED IMPRP ELECT VDW BOUNDARY MISC KINETIC TOTAL TEMP POTENTIAL TOTALAVG TEMPAVG PRESSURE GPRESSURE VOLUME PRESSAVG GPRESSAVG
ENERGY: 0 6.2758 19.5743 31.0194 0.0000 -10635.9871 1414.2354 0.0000 0.0000 1736.2038 -7428.6784 296.3193 -9164.8821 -7428.6784 296.3193 243.9503 318.2217 29805.1093 243.9503 318.2217
ENERGY: 300000 6.9049 18.8123 26.0631 0.0000 -10618.6232 1421.0438 0.0000 0.0000 1751.0122 -7394.7868 298.8467 -9145.7991 -7372.3045 302.3451 235.9571 317.7915 29841.4995 568.9597 647.1376
ENERGY: 600000 6.0869 19.1679 25.2624 0.0000 -10721.7743 1417.5659 0.0000 0.0000 1788.4544 -7465.2369 305.2370 -9253.6913 -7399.9044 302.3474 -293.5666 -256.3940 30067.8276 153.4801 219.2532
ENERGY: 900000 5.7479 12.1578 27.2409 0.0000 -10554.2778 1397.4994 0.0000 0.0000 1765.3907 -7346.2412 301.3007 -9111.6319 -7386.0091 302.0147 -191.0739 -81.4578 30013.9566 14.0480 87.1311
ENERGY: 1200000 4.1787 21.4738 25.9011 0.0000 -10560.7870 1370.9168 0.0000 0.0000 1772.8432 -7365.4736 302.5726 -9138.3167 -7386.0157 301.5948 -653.3421 -576.4302 30505.2410 -39.8224 36.2614
ENERGY: 1500000 3.8891 18.0441 27.0711 0.0000 -10464.8234 1277.3769 0.0000 0.0000 1728.9620 -7409.4802 295.0833 -9138.4422 -7375.9739 302.0492 -1010.6820 -934.0862 30270.9547 -123.8839 -42.9810
TCL: Running FEP window   5: Lambda1 0.2    Lambda2 0.25   [dLambda 0.04999999999999999]
TCL: Setting parameter firsttimestep to 0
TCL: Setting parameter alchLambda to 0.2
Info: NONBONDED TABLE R-SQUARED SPACING: 0.0625
Info: NONBONDED TABLE SIZE: 705 POINTS
TCL: Setting parameter alchLambda2 to 0.25
Info: NONBONDED TABLE R-SQUARED SPACING: 0.0625
Info: NONBONDED TABLE SIZE: 705 POINTS
TCL: Running for 1500000 steps
ETITLE: TS BOND ANGLE DIHED IMPRP ELECT VDW BOUNDARY MISC KINETIC TOTAL TEMP POTENTIAL TOTALAVG TEMPAVG PRESSURE GPRESSURE VOLUME PRESSAVG GPRESSAVG
ENERGY: 0 3.8891 18.0441 27.0711 0.0000 -10464.8232 1276.9705 0.0000 0.0000 1728.1042 -7410.7442 294.9370 -9138.8484 -7410.7442 294.9370 -1040.0160 -931.6979 30270.9547 -1040.0160 -931.6979
ENERGY: 300000 10.5185 18.3655 26.9642 0.0000 -10619.5085 1399.7246 0.0000 0.0000 1798.8413 -7365.0944 307.0097 -9163.9357 -7393.9520 298.9056 -214.7250 -105.4184 29658.7537 -301.6259 -201.0682
ENERGY: 600000 9.8837 22.8452 26.3552 0.0000 -10646.5671 1413.2074 0.0000 0.0000 1782.9576 -7391.3180 304.2988 -9174.2757 -7400.5462 298.9794 121.3071 119.9975 29797.1159 117.4512 181.2758
ENERGY: 900000 10.1184 19.6719 30.7857 0.0000 -10601.4193 1379.3803 0.0000 0.0000 1707.2211 -7454.2420 291.3728 -9161.4631 -7404.1626 297.9865 -455.7358 -405.5750 30004.0246 78.9380 143.7138
ENERGY: 1200000 9.8715 17.6306 29.2294 0.0000 -10535.1261 1301.9290 0.0000 0.0000 1766.1640 -7410.3016 301.4327 -9176.4657 -7396.6226 298.3015 -1140.1903 -1105.9769 30320.2814 -4.2444 62.6916
ENERGY: 1500000 4.7737 15.3417 26.0352 0.0000 -10629.2044 1451.8394 0.0000 0.0000 1716.1393 -7415.0751 292.8949 -9131.2145 -7397.7060 298.2071 586.6445 650.4791 30007.8385 62.2737 127.7154
TCL: Running FEP window   6: Lambda1 0.25   Lambda2 0.3    [dLambda 0.04999999999999999]
TCL: Setting parameter firsttimestep to 0
TCL: Setting parameter alchLambda to 0.25
Info: NONBONDED TABLE R-SQUARED SPACING: 0.0625
Info: NONBONDED TABLE SIZE: 705 POINTS
TCL: Setting parameter alchLambda2 to 0.3
Info: NONBONDED TABLE R-SQUARED SPACING: 0.0625
Info: NONBONDED TABLE SIZE: 705 POINTS
TCL: Running for 1500000 steps
ETITLE: TS BOND ANGLE DIHED IMPRP ELECT VDW BOUNDARY MISC KINETIC TOTAL TEMP POTENTIAL TOTALAVG TEMPAVG PRESSURE GPRESSURE VOLUME PRESSAVG GPRESSAVG
ENERGY: 0 4.7737 15.3417 26.0352 0.0000 -10629.2036 1451.6572 0.0000 0.0000 1715.2726 -7416.1233 292.7470 -9131.3959 -7416.1233 292.7470 583.6283 655.8078 30007.8385 583.6283 655.8078
ENERGY: 300000 5.8223 14.4950 26.4740 0.0000 -10702.0314 1461.6753 0.0000 0.0000 1771.0668 -7422.4978 302.2694 -9193.5647 -7413.8891 297.5711 250.3077 267.8637 30079.7200 317.9228 356.5794
ENERGY: 600000 6.1434 19.8657 32.1099 0.0000 -10625.8733 1361.4681 0.0000 0.0000 1750.8744 -7455.4119 298.8232 -9206.2863 -7416.3676 297.0729 -777.6009 -773.1486 30722.9294 62.5034 100.6396
ENERGY: 900000 10.7284 17.8814 23.1984 0.0000 -10670.5691 1413.2309 0.0000 0.0000 1753.2577 -7452.2723 299.2299 -9205.5300 -7417.0859 297.7489 -255.7823 -159.2099 30046.1939 -81.4483 -25.7546
ENERGY: 1200000 8.1122 23.3582 27.3192 0.0000 -10554.9640 1466.7488 0.0000 0.0000 1721.7380 -7307.6876 293.8504 -9029.4256 -7410.0008 296.9946 682.6136 711.6228 30144.7668 37.4752 90.3530
ENERGY: 1500000 5.9685 26.3317 26.3007 0.0000 -10614.9741 1375.5583 0.0000 0.0000 1710.9000 -7469.9149 292.0007 -9180.8149 -7409.4403 297.1613 -585.0482 -497.2156 30264.4603 40.1479 94.8565
TCL: Running FEP window   7: Lambda1 0.3    Lambda2 0.35   [dLambda 0.04999999999999999]
TCL: Setting parameter firsttimestep to 0
TCL: Setting parameter alchLambda to 0.3
Info: NONBONDED TABLE R-SQUARED SPACING: 0.0625
Info: NONBONDED TABLE SIZE: 705 POINTS
TCL: Setting parameter alchLambda2 to 0.35
Info: NONBONDED TABLE R-SQUARED SPACING: 0.0625
Info: NONBONDED TABLE SIZE: 705 POINTS
TCL: Running for 1500000 steps
ETITLE: TS BOND ANGLE DIHED IMPRP ELECT VDW BOUNDARY MISC KINETIC TOTAL TEMP POTENTIAL TOTALAVG TEMPAVG PRESSURE GPRESSURE VOLUME PRESSAVG GPRESSAVG
ENERGY: 0 5.9685 26.3317 26.3007 0.0000 -10614.9753 1375.6088 0.0000 0.0000 1710.0547 -7470.7109 291.8564 -9180.7656 -7470.7109 291.8564 -565.8010 -488.4674 30264.4603 -565.8010 -488.4674
ENERGY: 300000 11.3859 19.7564 30.5074 0.0000 -10654.6249 1327.6976 0.0000 0.0000 1763.0054 -7502.2722 300.8936 -9265.2776 -7433.7421 293.9137 -1445.5887 -1353.6273 30442.8146 -546.4494 -483.3926
ENERGY: 600000 8.1022 21.3110 28.3449 0.0000 -10530.7777 1359.7723 0.0000 0.0000 1768.3027 -7344.9448 301.7977 -9113.2475 -7396.5578 295.5747 -337.1665 -253.6975 30350.4885 -451.0207 -393.3067
ENERGY: 900000 6.4452 17.8321 25.3218 0.0000 -10636.1904 1395.4980 0.0000 0.0000 1767.7401 -7423.3532 301.7016 -9191.0933 -7403.1274 296.1723 -342.3412 -266.0370 30149.5614 -426.2369 -364.8604
ENERGY: 1200000 7.4691 20.8814 31.2719 0.0000 -10672.8802 1461.3590 0.0000 0.0000 1845.0296 -7306.8693 314.8927 -9151.8989 -7399.4159 298.5481 554.5081 587.7744 29799.6229 -396.1186 -336.9027
ENERGY: 1500000 5.2646 20.6964 28.9049 0.0000 -10793.9161 1525.7844 0.0000 0.0000 1739.8100 -7473.4558 296.9348 -9213.2658 -7404.3268 298.3025 670.4817 727.7032 29936.3951 -289.0504 -221.5573
TCL: Running FEP window   8: Lambda1 0.35   Lambda2 0.39999999999999997 [dLambda 0.04999999999999999]
TCL: Setting parameter firsttimestep to 0
TCL: Setting parameter alchLambda to 0.35
Info: NONBONDED TABLE R-SQUARED SPACING: 0.0625
Info: NONBONDED TABLE SIZE: 705 POINTS
TCL: Setting parameter alchLambda2 to 0.39999999999999997
Info: NONBONDED TABLE R-SQUARED SPACING: 0.0625
Info: NONBONDED TABLE SIZE: 705 POINTS
TCL: Running for 1500000 steps
ETITLE: TS BOND ANGLE DIHED IMPRP ELECT VDW BOUNDARY MISC KINETIC TOTAL TEMP POTENTIAL TOTALAVG TEMPAVG PRESSURE GPRESSURE VOLUME PRESSAVG GPRESSAVG
ENERGY: 0 5.2646 20.6964 28.9049 0.0000 -10793.9157 1527.2199 0.0000 0.0000 1738.9600 -7472.8699 296.7897 -9211.8299 -7472.8699 296.7897 661.5364 742.4122 29936.3951 661.5364 742.4122
ENERGY: 300000 6.1560 19.0376 25.8020 0.0000 -10625.0773 1435.1043 0.0000 0.0000 1736.6446 -7402.3329 296.3945 -9138.9774 -7416.4850 298.2055 274.3636 289.8713 30282.1273 -146.1907 -74.3022
ENERGY: 600000 6.3854 19.3062 28.9924 0.0000 -10500.9364 1308.9472 0.0000 0.0000 1803.7624 -7333.5429 307.8496 -9137.3053 -7408.6343 300.6246 -856.6266 -804.2551 30163.8386 -318.0777 -272.4759
ENERGY: 900000 5.8307 17.0422 27.3796 0.0000 -10504.9103 1391.5089 0.0000 0.0000 1732.6151 -7330.5339 295.7068 -9063.1490 -7396.0213 299.4064 -95.8925 -1.5120 30273.3410 -178.0015 -122.4581
ENERGY: 1200000 8.7174 18.4122 28.9332 0.0000 -10498.2639 1316.1787 0.0000 0.0000 1781.6798 -7344.3427 304.0807 -9126.0224 -7389.2384 299.8907 -702.8363 -640.3216 30308.5597 -196.4515 -134.5514
ENERGY: 1500000 12.3993 13.3154 26.6321 0.0000 -10661.6878 1433.9785 0.0000 0.0000 1715.8594 -7459.5030 292.8471 -9175.3625 -7388.5430 299.8983 59.7542 184.4058 30002.3899 -127.5844 -58.2662
TCL: Running FEP window   9: Lambda1 0.39999999999999997 Lambda2 0.44999999999999996 [dLambda 0.04999999999999999]
TCL: Setting parameter firsttimestep to 0
TCL: Setting parameter alchLambda to 0.39999999999999997
Info: NONBONDED TABLE R-SQUARED SPACING: 0.0625
Info: NONBONDED TABLE SIZE: 705 POINTS
TCL: Setting parameter alchLambda2 to 0.44999999999999996
Info: NONBONDED TABLE R-SQUARED SPACING: 0.0625
Info: NONBONDED TABLE SIZE: 705 POINTS
TCL: Running for 1500000 steps
ETITLE: TS BOND ANGLE DIHED IMPRP ELECT VDW BOUNDARY MISC KINETIC TOTAL TEMP POTENTIAL TOTALAVG TEMPAVG PRESSURE GPRESSURE VOLUME PRESSAVG GPRESSAVG
ENERGY: 0 12.3993 13.3155 26.6321 0.0000 -10661.6864 1434.0120 0.0000 0.0000 1714.9812 -7460.3463 292.6972 -9175.3275 -7460.3463 292.6972 113.2443 202.0942 30002.3899 113.2443 202.0942
ENERGY: 300000 9.5067 17.9329 28.8244 0.0000 -10692.2265 1437.7796 0.0000 0.0000 1750.8224 -7447.3604 298.8143 -9198.1828 -7451.1921 295.2559 132.1860 216.7885 29996.2831 17.5834 80.3887
ENERGY: 600000 6.4961 13.5242 27.2872 0.0000 -10573.6757 1390.0528 0.0000 0.0000 1779.1272 -7357.1881 303.6451 -9136.3153 -7428.0188 298.7873 -192.9991 -154.3648 30112.6701 107.1595 162.8740
ENERGY: 900000 6.9566 18.4342 26.5039 0.0000 -10650.1008 1427.9448 0.0000 0.0000 1760.0453 -7410.2160 300.3884 -9170.2613 -7414.2931 299.8289 52.0276 117.7429 30221.3941 111.1618 170.5597
ENERGY: 1200000 7.3638 14.9834 25.3533 0.0000 -10723.0456 1481.9273 0.0000 0.0000 1798.0510 -7395.3668 306.8748 -9193.4178 -7414.2649 300.5233 518.5296 544.0380 30390.3954 135.6677 197.6050
ENERGY: 1500000 6.2671 23.2125 25.4398 0.0000 -10547.7946 1342.4274 0.0000 0.0000 1773.5255 -7376.9223 302.6890 -9150.4479 -7416.3399 299.9814 -329.4024 -346.3770 30316.6394 99.5489 156.1954
TCL: Running FEP window  10: Lambda1 0.44999999999999996 Lambda2 0.49999999999999994 [dLambda 0.04999999999999999]
TCL: Setting parameter firsttimestep to 0
TCL: Setting parameter alchLambda to 0.44999999999999996
Info: NONBONDED TABLE R-SQUARED SPACING: 0.0625
Info: NONBONDED TABLE SIZE: 705 POINTS
TCL: Setting parameter alchLambda2 to 0.49999999999999994
Info: NONBONDED TABLE R-SQUARED SPACING: 0.0625
Info: NONBONDED TABLE SIZE: 705 POINTS
TCL: Running for 1500000 steps
ETITLE: TS BOND ANGLE DIHED IMPRP ELECT VDW BOUNDARY MISC KINETIC TOTAL TEMP POTENTIAL TOTALAVG TEMPAVG PRESSURE GPRESSURE VOLUME PRESSAVG GPRESSAVG
ENERGY: 0 6.2671 23.2125 25.4398 0.0000 -10547.7956 1342.7667 0.0000 0.0000 1772.6321 -7377.4774 302.5366 -9150.1095 -7377.4774 302.5366 -387.9594 -326.9522 30316.6394 -387.9594 -326.9522
ENERGY: 300000 9.9584 25.9795 26.3177 0.0000 -10604.6206 1436.4116 0.0000 0.0000 1789.0924 -7316.8610 305.3459 -9105.9535 -7364.0831 303.5017 706.5880 766.4926 29764.3296 -321.6175 -233.7647
ENERGY: 600000 6.4728 16.1630 28.5977 0.0000 -10526.4959 1320.7353 0.0000 0.0000 1794.1432 -7360.3839 306.2079 -9154.5271 -7361.4682 302.7642 -1122.7054 -1056.0813 30566.6658 -381.6524 -291.3204
ENERGY: 900000 10.0599 21.4720 24.1873 0.0000 -10714.3387 1516.9147 0.0000 0.0000 1767.8903 -7373.8146 301.7273 -9141.7049 -7375.9663 301.7407 925.2799 1028.7037 29866.2459 -196.9141 -110.0527
ENERGY: 1200000 10.3720 16.8571 31.5022 0.0000 -10653.9381 1420.7375 0.0000 0.0000 1755.8629 -7418.6065 299.6745 -9174.4693 -7382.2031 301.4438 -9.2702 107.4447 30127.2995 -88.0239 5.5716
ENERGY: 1500000 6.8223 20.7354 28.2999 0.0000 -10640.4468 1381.5201 0.0000 0.0000 1755.0404 -7448.0288 299.5342 -9203.0692 -7379.6202 301.6888 -422.1937 -416.3453 30317.8078 -184.0616 -100.0479
TCL: Running FEP window  11: Lambda1 0.49999999999999994 Lambda2 0.5499999999999999 [dLambda 0.04999999999999999]
TCL: Setting parameter firsttimestep to 0
TCL: Setting parameter alchLambda to 0.49999999999999994
Info: NONBONDED TABLE R-SQUARED SPACING: 0.0625
Info: NONBONDED TABLE SIZE: 705 POINTS
TCL: Setting parameter alchLambda2 to 0.5499999999999999
Info: NONBONDED TABLE R-SQUARED SPACING: 0.0625
Info: NONBONDED TABLE SIZE: 705 POINTS
TCL: Running for 1500000 steps
ETITLE: TS BOND ANGLE DIHED IMPRP ELECT VDW BOUNDARY MISC KINETIC TOTAL TEMP POTENTIAL TOTALAVG TEMPAVG PRESSURE GPRESSURE VOLUME PRESSAVG GPRESSAVG
ENERGY: 0 6.8223 20.7354 28.2999 0.0000 -10640.4463 1381.9208 0.0000 0.0000 1754.1938 -7448.4741 299.3897 -9202.6679 -7448.4741 299.3897 -470.7447 -397.7838 30317.8078 -470.7447 -397.7838
ENERGY: 300000 5.6043 15.4097 27.3929 0.0000 -10609.1097 1394.9005 0.0000 0.0000 1757.7277 -7408.0746 299.9928 -9165.8023 -7425.3002 298.3227 -422.3165 -371.6948 30406.6505 -159.5894 -105.8489
ENERGY: 600000 12.9751 19.5194 26.1381 0.0000 -10766.8190 1467.4453 0.0000 0.0000 1721.8475 -7518.8936 293.8691 -9240.7411 -7423.6081 298.8478 61.2101 159.1835 30048.1539 2.9717 65.5817
ENERGY: 900000 6.3629 20.1893 24.2837 0.0000 -10687.9347 1392.7322 0.0000 0.0000 1764.7866 -7479.5801 301.1976 -9244.3667 -7424.8404 300.1561 -293.7553 -272.7433 29970.0746 12.9362 73.1429
ENERGY: 1200000 13.6974 18.2049 23.6097 0.0000 -10626.9179 1433.8937 0.0000 0.0000 1760.6159 -7376.8963 300.4858 -9137.5122 -7424.0178 299.4641 220.0738 311.7526 30291.9124 123.2133 193.2320
ENERGY: 1500000 11.6612 16.1849 26.6976 0.0000 -10550.0186 1393.4480 0.0000 0.0000 1744.2738 -7357.7531 297.6966 -9102.0268 -7428.7564 298.8541 -361.0666 -242.1514 30430.6023 95.9182 165.6753
TCL: Running FEP window  12: Lambda1 0.5499999999999999 Lambda2 0.6    [dLambda 0.050000000000000044]
TCL: Setting parameter firsttimestep to 0
TCL: Setting parameter alchLambda to 0.5499999999999999
Info: NONBONDED TABLE R-SQUARED SPACING: 0.0625
Info: NONBONDED TABLE SIZE: 705 POINTS
TCL: Setting parameter alchLambda2 to 0.6
Info: NONBONDED TABLE R-SQUARED SPACING: 0.0625
Info: NONBONDED TABLE SIZE: 705 POINTS
TCL: Running for 1500000 steps
ETITLE: TS BOND ANGLE DIHED IMPRP ELECT VDW BOUNDARY MISC KINETIC TOTAL TEMP POTENTIAL TOTALAVG TEMPAVG PRESSURE GPRESSURE VOLUME PRESSAVG GPRESSAVG
ENERGY: 0 11.6612 16.1849 26.6976 0.0000 -10549.9900 1392.1030 0.0000 0.0000 1743.3888 -7359.9545 297.5456 -9103.3433 -7359.9545 297.5456 -324.4442 -238.2614 30430.6023 -324.4442 -238.2614
ENERGY: 300000 9.2285 19.3004 26.1237 0.0000 -10665.6000 1441.1648 0.0000 0.0000 1683.5026 -7486.2799 287.3248 -9169.7825 -7410.7404 296.2582 285.5511 323.2934 30047.2023 -292.4573 -254.0419
ENERGY: 600000 6.9073 23.8135 27.6556 0.0000 -10570.3124 1327.2620 0.0000 0.0000 1847.8724 -7336.8016 315.3779 -9184.6740 -7374.5150 301.9267 -266.3663 -150.3466 29590.7910 -204.0442 -152.6960
ENERGY: 900000 9.4409 17.2851 26.6749 0.0000 -10568.5449 1403.8289 0.0000 0.0000 1776.4762 -7334.8390 303.1926 -9111.3152 -7370.5077 302.7221 -101.2729 -29.8045 30448.1239 -172.0814 -118.4611
ENERGY: 1200000 16.0645 14.4610 27.4999 0.0000 -10567.2635 1361.9716 0.0000 0.0000 1758.5898 -7388.6768 300.1399 -9147.2665 -7374.6368 302.1812 -412.5507 -336.2644 30189.4381 -166.5109 -107.3075
ENERGY: 1500000 7.6340 15.4563 26.8103 0.0000 -10700.8306 1475.5679 0.0000 0.0000 1719.1347 -7456.2274 293.4061 -9175.3620 -7376.5151 301.6184 328.1481 383.6594 30533.5739 -162.3883 -109.7164
TCL: Running FEP window  13: Lambda1 0.6    Lambda2 0.65   [dLambda 0.050000000000000044]
TCL: Setting parameter firsttimestep to 0
TCL: Setting parameter alchLambda to 0.6
Info: NONBONDED TABLE R-SQUARED SPACING: 0.0625
Info: NONBONDED TABLE SIZE: 705 POINTS
TCL: Setting parameter alchLambda2 to 0.65
Info: NONBONDED TABLE R-SQUARED SPACING: 0.0625
Info: NONBONDED TABLE SIZE: 705 POINTS
TCL: Running for 1500000 steps
ETITLE: TS BOND ANGLE DIHED IMPRP ELECT VDW BOUNDARY MISC KINETIC TOTAL TEMP POTENTIAL TOTALAVG TEMPAVG PRESSURE GPRESSURE VOLUME PRESSAVG GPRESSAVG
ENERGY: 0 7.6340 15.4563 26.8103 0.0000 -10701.3810 1475.5954 0.0000 0.0000 1718.2559 -7457.6290 293.2561 -9175.8849 -7457.6290 293.2561 326.1186 403.2012 30533.5739 326.1186 403.2012
ENERGY: 300000 9.6509 15.6067 25.2121 0.0000 -10653.0810 1433.6488 0.0000 0.0000 1708.5404 -7460.4221 291.5980 -9168.9625 -7472.4237 290.8021 -44.0625 60.4490 30483.6524 19.9163 113.9394
ENERGY: 600000 5.3444 15.9700 27.3555 0.0000 -10645.0283 1405.6534 0.0000 0.0000 1755.3579 -7435.3472 299.5884 -9190.7050 -7446.3296 293.9474 -33.5408 56.0917 30132.9671 -141.6762 -59.5744
ENERGY: 900000 8.7319 15.0150 24.7923 0.0000 -10654.5148 1444.0142 0.0000 0.0000 1774.5224 -7387.4390 302.8592 -9161.9614 -7429.4445 296.4494 59.5045 85.7846 30393.6259 -94.1753 -20.6427
ENERGY: 1200000 9.1492 15.0600 22.5780 0.0000 -10567.6276 1384.4006 0.0000 0.0000 1758.9306 -7377.5092 300.1981 -9136.4398 -7418.4342 297.7021 -155.2822 -82.8015 30115.8473 -115.9851 -46.1018
ENERGY: 1500000 9.1735 20.6287 22.6943 0.0000 -10570.7563 1395.1179 0.0000 0.0000 1789.9729 -7333.1691 305.4961 -9123.1420 -7405.6318 299.0133 -63.2799 -19.5916 30293.2438 -3.0734 65.2210
TCL: Running FEP window  14: Lambda1 0.65   Lambda2 0.7000000000000001 [dLambda 0.050000000000000044]
TCL: Setting parameter firsttimestep to 0
TCL: Setting parameter alchLambda to 0.65
Info: NONBONDED TABLE R-SQUARED SPACING: 0.0625
Info: NONBONDED TABLE SIZE: 705 POINTS
TCL: Setting parameter alchLambda2 to 0.7000000000000001
Info: NONBONDED TABLE R-SQUARED SPACING: 0.0625
Info: NONBONDED TABLE SIZE: 705 POINTS
TCL: Running for 1500000 steps
ETITLE: TS BOND ANGLE DIHED IMPRP ELECT VDW BOUNDARY MISC KINETIC TOTAL TEMP POTENTIAL TOTALAVG TEMPAVG PRESSURE GPRESSURE VOLUME PRESSAVG GPRESSAVG
ENERGY: 0 9.1735 20.6287 22.6943 0.0000 -10570.7796 1395.1480 0.0000 0.0000 1789.1243 -7334.0108 305.3513 -9123.1352 -7334.0108 305.3513 -103.5365 0.9073 30293.2438 -103.5365 0.9073
ENERGY: 300000 13.6880 20.1724 27.5477 0.0000 -10612.0285 1428.6084 0.0000 0.0000 1812.9466 -7309.0655 309.4171 -9122.0121 -7397.5550 302.1612 -138.0066 -31.7295 30403.2494 52.1902 108.9910
ENERGY: 600000 8.3632 21.2690 24.7912 0.0000 -10678.9543 1385.0578 0.0000 0.0000 1736.2223 -7503.2508 296.3225 -9239.4731 -7412.0655 300.5198 -802.1921 -645.2870 30586.6410 -123.4659 -49.9300
ENERGY: 900000 4.9808 14.7145 28.7415 0.0000 -10599.6879 1380.0082 0.0000 0.0000 1723.8106 -7447.4323 294.2042 -9171.2429 -7418.9407 299.7958 -409.7656 -305.3867 30557.0684 -85.7195 -12.0940
ENERGY: 1200000 8.6679 21.6396 26.0389 0.0000 -10645.6175 1451.2331 0.0000 0.0000 1758.6414 -7379.3966 300.1488 -9138.0380 -7417.9380 299.1435 460.8631 448.8402 30286.6586 -121.7666 -49.5403
ENERGY: 1500000 8.2933 19.9497 26.6305 0.0000 -10733.3486 1497.9964 0.0000 0.0000 1782.0407 -7398.4380 304.1423 -9180.4787 -7414.7281 299.4027 902.9924 946.6988 29859.7997 -91.5932 -19.2993
TCL: Running FEP window  15: Lambda1 0.7000000000000001 Lambda2 0.7500000000000001 [dLambda 0.050000000000000044]
TCL: Setting parameter firsttimestep to 0
TCL: Setting parameter alchLambda to 0.7000000000000001
Info: NONBONDED TABLE R-SQUARED SPACING: 0.0625
Info: NONBONDED TABLE SIZE: 705 POINTS
TCL: Setting parameter alchLambda2 to 0.7500000000000001
Info: NONBONDED TABLE R-SQUARED SPACING: 0.0625
Info: NONBONDED TABLE SIZE: 705 POINTS
TCL: Running for 1500000 steps
ETITLE: TS BOND ANGLE DIHED IMPRP ELECT VDW BOUNDARY MISC KINETIC TOTAL TEMP POTENTIAL TOTALAVG TEMPAVG PRESSURE GPRESSURE VOLUME PRESSAVG GPRESSAVG
ENERGY: 0 8.2933 19.9497 26.6305 0.0000 -10734.3814 1498.2609 0.0000 0.0000 1781.1498 -7400.0973 303.9903 -9181.2471 -7400.0973 303.9903 887.2617 972.6370 29859.7997 887.2617 972.6370
ENERGY: 300000 7.6187 19.2580 26.4522 0.0000 -10713.7416 1389.4172 0.0000 0.0000 1759.3467 -7511.6488 300.2691 -9270.9955 -7424.2171 302.3410 -507.8834 -406.6217 29931.7805 -154.0884 -84.4077
ENERGY: 600000 5.7163 16.5901 25.7030 0.0000 -10678.3946 1454.6967 0.0000 0.0000 1790.7474 -7384.9410 305.6283 -9175.6885 -7423.0478 302.9852 586.1604 699.2030 29683.2276 -41.5705 34.7334
ENERGY: 900000 8.6708 17.7656 26.5451 0.0000 -10652.2801 1409.4091 0.0000 0.0000 1731.3610 -7458.5285 295.4928 -9189.8895 -7438.5359 301.4571 -49.3650 30.9067 30144.4633 -110.7615 -28.5311
ENERGY: 1200000 13.0255 24.0646 22.6549 0.0000 -10721.1111 1468.2024 0.0000 0.0000 1765.4663 -7427.6973 301.3136 -9193.1636 -7437.5860 300.7514 128.7285 208.5109 29915.6549 -107.6919 -29.0345
ENERGY: 1500000 7.0890 14.2928 24.1304 0.0000 -10644.3329 1399.2434 0.0000 0.0000 1825.1905 -7374.3870 311.5067 -9199.5774 -7431.4575 301.4585 -199.4718 -43.7609 30459.3834 -103.9734 -17.4838
TCL: Running FEP window  16: Lambda1 0.7500000000000001 Lambda2 0.8000000000000002 [dLambda 0.050000000000000044]
TCL: Setting parameter firsttimestep to 0
TCL: Setting parameter alchLambda to 0.7500000000000001
Info: NONBONDED TABLE R-SQUARED SPACING: 0.0625
Info: NONBONDED TABLE SIZE: 705 POINTS
TCL: Setting parameter alchLambda2 to 0.8000000000000002
Info: NONBONDED TABLE R-SQUARED SPACING: 0.0625
Info: NONBONDED TABLE SIZE: 705 POINTS
TCL: Running for 1500000 steps
ETITLE: TS BOND ANGLE DIHED IMPRP ELECT VDW BOUNDARY MISC KINETIC TOTAL TEMP POTENTIAL TOTALAVG TEMPAVG PRESSURE GPRESSURE VOLUME PRESSAVG GPRESSAVG
ENERGY: 0 7.0890 14.2928 24.1304 0.0000 -10645.7035 1398.1210 0.0000 0.0000 1824.3490 -7377.7213 311.3631 -9202.0703 -7377.7213 311.3631 -124.7357 -38.3459 30459.3834 -124.7357 -38.3459
ENERGY: 300000 6.3318 19.0091 29.1493 0.0000 -10675.3469 1471.6317 0.0000 0.0000 1817.0060 -7332.2190 310.1099 -9149.2250 -7356.9659 308.4038 847.5810 835.7698 30433.0101 241.6116 311.1518
ENERGY: 600000 4.6886 27.1848 22.9279 0.0000 -10652.8871 1400.5150 0.0000 0.0000 1732.6316 -7464.9391 295.7096 -9197.5707 -7391.8655 303.8409 -531.0059 -408.8489 30558.9228 30.8394 104.2169
ENERGY: 900000 7.0812 17.0917 21.7170 0.0000 -10493.3579 1314.6028 0.0000 0.0000 1729.5303 -7403.3349 295.1803 -9132.8651 -7390.3411 302.2092 -504.2083 -440.9583 30284.0593 77.8486 149.4335
ENERGY: 1200000 6.0414 20.8881 25.5531 0.0000 -10591.4486 1339.1222 0.0000 0.0000 1754.6373 -7445.2064 299.4654 -9199.8438 -7385.9066 301.6898 -424.9987 -277.3303 29794.6567 85.3466 167.7122
ENERGY: 1500000 8.7233 23.3185 26.7350 0.0000 -10469.1622 1261.0583 0.0000 0.0000 1801.3093 -7348.0178 307.4309 -9149.3271 -7386.5421 301.5589 -1241.1759 -1214.6268 30264.2028 3.4763 76.3248
TCL: Running FEP window  17: Lambda1 0.8000000000000002 Lambda2 0.8500000000000002 [dLambda 0.050000000000000044]
TCL: Setting parameter firsttimestep to 0
TCL: Setting parameter alchLambda to 0.8000000000000002
Info: NONBONDED TABLE R-SQUARED SPACING: 0.0625
Info: NONBONDED TABLE SIZE: 705 POINTS
TCL: Setting parameter alchLambda2 to 0.8500000000000002
Info: NONBONDED TABLE R-SQUARED SPACING: 0.0625
Info: NONBONDED TABLE SIZE: 705 POINTS
TCL: Running for 1500000 steps
ETITLE: TS BOND ANGLE DIHED IMPRP ELECT VDW BOUNDARY MISC KINETIC TOTAL TEMP POTENTIAL TOTALAVG TEMPAVG PRESSURE GPRESSURE VOLUME PRESSAVG GPRESSAVG
ENERGY: 0 8.7233 23.3185 26.7350 0.0000 -10471.6943 1261.5595 0.0000 0.0000 1800.4673 -7350.8906 307.2872 -9151.3580 -7350.8906 307.2872 -1267.4362 -1183.3562 30264.2028 -1267.4362 -1183.3562
ENERGY: 300000 9.8643 16.9808 27.8560 0.0000 -10586.8473 1413.4902 0.0000 0.0000 1798.2990 -7320.3570 306.9172 -9118.6560 -7368.7432 303.9417 333.1899 438.9025 30098.0168 -338.0652 -245.2931
ENERGY: 600000 12.4464 20.1272 27.7337 0.0000 -10591.3941 1393.6545 0.0000 0.0000 1785.0206 -7352.4117 304.6509 -9137.4323 -7354.6130 304.1890 -120.6901 -86.5369 30352.6993 -227.3012 -162.9797
ENERGY: 900000 6.1693 19.6193 25.1432 0.0000 -10715.8158 1430.8154 0.0000 0.0000 1747.0066 -7487.0620 298.1630 -9234.0686 -7382.6990 303.9569 -198.4944 -171.3641 30349.1774 -248.3193 -183.0818
ENERGY: 1200000 9.2627 20.0939 22.3577 0.0000 -10650.7751 1416.1079 0.0000 0.0000 1754.5922 -7428.3608 299.4577 -9182.9530 -7402.3915 302.1590 -41.1658 100.6835 29933.6036 -171.8136 -96.6258
ENERGY: 1500000 10.7338 17.5293 31.2928 0.0000 -10521.4782 1347.3694 0.0000 0.0000 1730.2009 -7384.3520 295.2948 -9114.5529 -7412.3601 300.9098 -359.3927 -307.6994 30312.5355 -206.2801 -133.7045
TCL: Running FEP window  18: Lambda1 0.8500000000000002 Lambda2 0.9000000000000002 [dLambda 0.050000000000000044]
TCL: Setting parameter firsttimestep to 0
TCL: Setting parameter alchLambda to 0.8500000000000002
Info: NONBONDED TABLE R-SQUARED SPACING: 0.0625
Info: NONBONDED TABLE SIZE: 705 POINTS
TCL: Setting parameter alchLambda2 to 0.9000000000000002
Info: NONBONDED TABLE R-SQUARED SPACING: 0.0625
Info: NONBONDED TABLE SIZE: 705 POINTS
TCL: Running for 1500000 steps
ETITLE: TS BOND ANGLE DIHED IMPRP ELECT VDW BOUNDARY MISC KINETIC TOTAL TEMP POTENTIAL TOTALAVG TEMPAVG PRESSURE GPRESSURE VOLUME PRESSAVG GPRESSAVG
ENERGY: 0 10.7338 17.5293 31.2928 0.0000 -10523.5026 1347.9960 0.0000 0.0000 1729.3242 -7386.6264 295.1452 -9115.9506 -7386.6264 295.1452 -368.3327 -279.6532 30312.5355 -368.3327 -279.6532
ENERGY: 300000 9.7679 17.2447 27.3433 0.0000 -10499.0331 1327.0598 0.0000 0.0000 1714.7950 -7402.8223 292.6655 -9117.6173 -7426.2618 295.0679 -656.3744 -605.3645 30597.8832 -504.0655 -435.6632
ENERGY: 600000 7.6491 18.8672 24.2186 0.0000 -10584.6234 1374.5437 0.0000 0.0000 1719.8538 -7439.4910 293.5288 -9159.3448 -7426.9077 297.3437 -264.8571 -216.9974 30470.0306 -384.2596 -324.9260
ENERGY: 900000 6.7931 12.9775 20.4648 0.0000 -10585.2266 1401.3095 0.0000 0.0000 1753.0888 -7390.5931 299.2011 -9143.6819 -7424.7120 297.4425 -13.3929 5.9597 30125.3962 -278.7889 -235.0959
ENERGY: 1200000 10.5446 15.4714 28.1815 0.0000 -10706.5914 1450.4925 0.0000 0.0000 1807.2559 -7394.6455 308.4458 -9201.9014 -7427.5649 298.9943 380.5289 392.4778 30102.4983 -219.0104 -167.9925
ENERGY: 1500000 7.2444 13.6684 30.0826 0.0000 -10673.3067 1398.3271 0.0000 0.0000 1743.0932 -7480.8910 297.4951 -9223.9842 -7437.1390 298.2834 -149.5167 -12.6161 29931.0752 -250.3710 -192.6348
TCL: Running FEP window  19: Lambda1 0.9000000000000002 Lambda2 0.9500000000000003 [dLambda 0.050000000000000044]
TCL: Setting parameter firsttimestep to 0
TCL: Setting parameter alchLambda to 0.9000000000000002
Info: NONBONDED TABLE R-SQUARED SPACING: 0.0625
Info: NONBONDED TABLE SIZE: 705 POINTS
TCL: Setting parameter alchLambda2 to 0.9500000000000003
Info: NONBONDED TABLE R-SQUARED SPACING: 0.0625
Info: NONBONDED TABLE SIZE: 705 POINTS
TCL: Running for 1500000 steps
ETITLE: TS BOND ANGLE DIHED IMPRP ELECT VDW BOUNDARY MISC KINETIC TOTAL TEMP POTENTIAL TOTALAVG TEMPAVG PRESSURE GPRESSURE VOLUME PRESSAVG GPRESSAVG
ENERGY: 0 7.2444 13.6684 30.0826 0.0000 -10675.0958 1398.6512 0.0000 0.0000 1742.1995 -7483.2497 297.3426 -9225.4492 -7483.2497 297.3426 -73.9703 17.5867 29931.0752 -73.9703 17.5867
ENERGY: 300000 8.8507 13.8155 26.3569 0.0000 -10488.0546 1322.5989 0.0000 0.0000 1757.5873 -7358.8453 299.9688 -9116.4326 -7431.2047 298.9978 -546.3735 -573.0680 30704.9900 204.7021 244.7491
ENERGY: 600000 9.6861 17.0068 30.0296 0.0000 -10499.7359 1351.9150 0.0000 0.0000 1767.8822 -7323.2162 301.7259 -9091.0984 -7436.8980 297.1901 -340.7787 -247.6889 30549.5749 89.7774 149.4371
ENERGY: 900000 10.2970 13.5703 31.7426 0.0000 -10748.6681 1438.0922 0.0000 0.0000 1775.2186 -7479.7474 302.9780 -9254.9659 -7441.2938 297.9117 172.9975 290.3766 29651.0307 -21.4673 43.7401
ENERGY: 1200000 7.8228 18.0772 25.1321 0.0000 -10711.2396 1480.6632 0.0000 0.0000 1800.0734 -7379.4710 307.2200 -9179.5444 -7434.5752 299.6563 774.7000 815.3821 30027.2509 101.5077 161.2151
ENERGY: 1500000 6.4913 25.5946 24.6431 0.0000 -10675.7243 1450.3199 0.0000 0.0000 1744.4325 -7424.2429 297.7237 -9168.6754 -7432.8323 300.2545 627.5334 670.6765 30004.5658 77.3885 134.1202
TCL: Running FEP window  20: Lambda1 0.9500000000000003 Lambda2 1.0    [dLambda 0.04999999999999971]
TCL: Setting parameter firsttimestep to 0
TCL: Setting parameter alchLambda to 0.9500000000000003
Info: NONBONDED TABLE R-SQUARED SPACING: 0.0625
Info: NONBONDED TABLE SIZE: 705 POINTS
TCL: Setting parameter alchLambda2 to 1.0
Info: NONBONDED TABLE R-SQUARED SPACING: 0.0625
Info: NONBONDED TABLE SIZE: 705 POINTS
TCL: Running for 1500000 steps
ETITLE: TS BOND ANGLE DIHED IMPRP ELECT VDW BOUNDARY MISC KINETIC TOTAL TEMP POTENTIAL TOTALAVG TEMPAVG PRESSURE GPRESSURE VOLUME PRESSAVG GPRESSAVG
ENERGY: 0 6.4913 25.5946 24.6431 0.0000 -10677.7656 1450.7295 0.0000 0.0000 1743.5222 -7426.7848 297.5684 -9170.3071 -7426.7848 297.5684 630.6312 705.9833 30004.5658 630.6312 705.9833
ENERGY: 300000 9.7455 18.9725 30.3288 0.0000 -10603.9441 1385.9880 0.0000 0.0000 1780.9277 -7377.9816 303.9524 -9158.9094 -7418.9239 300.2570 -34.0063 57.6532 30405.3502 45.0297 116.4161
ENERGY: 600000 6.6262 19.8641 30.8694 0.0000 -10646.2664 1459.8815 0.0000 0.0000 1725.3881 -7403.6370 294.4734 -9129.0251 -7393.0024 301.8518 735.0432 790.2880 30382.4047 166.2833 238.2254
ENERGY: 900000 8.1930 23.0819 27.2360 0.0000 -10682.3096 1390.3923 0.0000 0.0000 1729.7708 -7503.6356 295.2214 -9233.4064 -7401.1627 300.9138 251.5671 292.4175 29609.0726 135.5721 203.7756
ENERGY: 1200000 8.5408 23.8236 26.5088 0.0000 -10487.3184 1312.2347 0.0000 0.0000 1734.4616 -7381.7489 296.0220 -9116.2105 -7408.2329 299.9889 -461.7316 -350.3999 30709.5108 42.5181 114.4938
ENERGY: 1500000 10.7268 19.8306 30.1813 0.0000 -10686.9871 1480.1272 0.0000 0.0000 1803.5786 -7342.5426 307.8182 -9146.1212 -7408.7769 300.0099 853.3151 894.8513 30360.2207 115.0710 184.6606
TCL: Exiting due to exit command.
