Info: SIMULATION PARAMETERS:
Info: TIMESTEP               2
Info: NUMBER OF STEPS        0
Info: STEPS PER CYCLE        10
Info: PERIODIC CELL BASIS 1  32.3483 0 0
Info: PERIODIC CELL BASIS 2  0 28.5479 0
Info: PERIODIC CELL BASIS 3  0 0 32.8814
Info: PERIODIC CELL CENTER   0 0 0
Info: WRAPPING WATERS AROUND PERIODIC BOUNDARIES ON OUTPUT.
Info: WRAPPING ALL CLUSTERS AROUND PERIODIC BOUNDARIES ON OUTPUT.
Info: FIRST LDB TIMESTEP     50
Info: LAST LDB TIMESTEP     -1
Info: HOM BACKGROUND SCALING 1
Info: PME BACKGROUND SCALING 1
Info: MIN ATOMS PER PATCH    40
Info: EMPTY PATCH LOAD       40 ATOMS
Info: VELOCITY FILE          mobley_8207196_equil.vel
Info: CENTER OF MASS MOVING INITIALLY? NO
Info: DIELECTRIC             1
Info: EXCLUDE                SCALED ONE-FOUR
Info: 1-4 ELECTROSTATICS SCALED BY 0.833333
Info: MODIFIED 1-4 VDW PARAMETERS WILL BE USED
Info: DCD FILENAME           mobley_8207196_prod.dcd
Info: DCD FREQUENCY          100000
Info: DCD FIRST STEP         100000
Info: DCD FILE WILL CONTAIN UNIT CELL DATA
Info: XST FILENAME           mobley_8207196_prod.xst
Info: XST FREQUENCY          100000
Info: NO VELOCITY DCD OUTPUT
Info: NO FORCE DCD OUTPUT
Info: OUTPUT FILENAME        mobley_8207196_prod
Info: BINARY OUTPUT FILES WILL BE USED
Info: RESTART FILENAME       mobley_8207196_prod.restart
Info: RESTART FREQUENCY      100000
Info: BINARY RESTART FILES WILL BE USED
Info: CUTOFF                 9
Info: PAIRLIST DISTANCE      11
Info: PAIRLIST SHRINK RATE   0.01
Info: PAIRLIST GROW RATE     0.01
Info: PAIRLIST TRIGGER       0.3
Info: PAIRLISTS PER CYCLE    2
Info: PAIRLISTS ENABLED
Info: MARGIN                 2
Info: HYDROGEN GROUP CUTOFF  2.5
Info: PATCH DIMENSION        15.5
Info: ENERGY OUTPUT STEPS    100000
Info: ENERGY EVALUATION STEPS    100000
Info: OUTPUT ENERGY PRECISION 4
Info: CROSSTERM ENERGY INCLUDED IN DIHEDRAL
Info: TIMING OUTPUT STEPS    1000000
Info: PRESSURE OUTPUT STEPS  100000
Info: ALCHEMICAL FEP ON
Info: FEP CURRENT LAMBDA VALUE     1
Info: FEP COMPARISON LAMBDA VALUE  0.95
Info: FEP INTRA-ALCHEMICAL NON-BONDED INTERACTIONS WILL BE RETAINED
Info: FEP INTRA-ALCHEMICAL BONDED INTERACTIONS WILL BE RETAINED
Info: FEP VDW SHIFTING COEFFICIENT 5
Info: FEP ELEC. ACTIVE FOR ANNIHILATED PARTICLES BETWEEN LAMBDA = 0 AND LAMBDA = 0.5
Info: FEP ELEC. ACTIVE FOR EXNIHILATED PARTICLES BETWEEN LAMBDA = 0.5 AND LAMBDA = 1
Info: FEP VDW ACTIVE FOR ANNIHILATED PARTICLES BETWEEN LAMBDA = 0 AND LAMBDA = 1
Info: FEP VDW ACTIVE FOR EXNIHILATED PARTICLES BETWEEN LAMBDA = 0 AND LAMBDA = 1
Info: FEP BOND ACTIVE FOR ANNIHILATED PARTICLES BETWEEN LAMBDA = 1 AND LAMBDA = 1
Info: FEP BOND ACTIVE FOR EXNIHILATED PARTICLES BETWEEN LAMBDA = 0 AND LAMBDA = 0
Info: LANGEVIN DYNAMICS ACTIVE
Info: LANGEVIN TEMPERATURE   300
Info: LANGEVIN USING BBK INTEGRATOR
Info: LANGEVIN DAMPING COEFFICIENT IS 1 INVERSE PS
Info: LANGEVIN DYNAMICS APPLIED TO HYDROGENS
Info: LANGEVIN PISTON PRESSURE CONTROL ACTIVE
Info:        TARGET PRESSURE IS 1.01325 BAR
Info:     OSCILLATION PERIOD IS 50 FS
Info:             DECAY TIME IS 25 FS
Info:     PISTON TEMPERATURE IS 300 K
Info:       PRESSURE CONTROL IS GROUP-BASED
Info:    INITIAL STRAIN RATE IS 0.000441962 0.000441962 0.000441962
Info:       CELL FLUCTUATION IS ISOTROPIC
Info: PARTICLE MESH EWALD (PME) ACTIVE
Info: PME TOLERANCE               1e-06
Info: PME EWALD COEFFICIENT       0.348832
Info: PME INTERPOLATION ORDER     4
Info: PME GRID DIMENSIONS         36 32 36
Info: PME MAXIMUM GRID SPACING    1
Info: PME CALCULATION WILL BE PERFORMED ON GPU
Info: FULL ELECTROSTATIC EVALUATION FREQUENCY      2
Info: USING VERLET I (r-RESPA) MTS SCHEME.
Info: C1 SPLITTING OF LONG RANGE ELECTROSTATICS
Info: PLACING ATOMS IN PATCHES BY HYDROGEN GROUPS
Info: RIGID BONDS TO HYDROGEN : ALL
Info:         ERROR TOLERANCE : 1e-08
Info:          MAX ITERATIONS : 100
Info: RIGID WATER USING SETTLE ALGORITHM
Info: RANDOM NUMBER SEED     1743985315
Info: USE HYDROGEN BONDS?    NO
Info: Using AMBER format force field!
Info: AMBER PARM FILE        mobley_8207196.prmtop
Info: COORDINATE PDB         mobley_8207196.pdb
Info: Exclusions will be read from PARM file!
Info: SCNB (VDW SCALING)     2
Info: USING ARITHMETIC MEAN TO COMBINE L-J SIGMA PARAMETERS
Info: BINARY COORDINATES     mobley_8207196_equil.coor
Info: SUMMARY OF PARAMETERS:
Info: 10 BONDS
Info: 13 ANGLES
Info:   13 HARMONIC
Info:   0 COSINE-BASED
Info: 5 DIHEDRAL
Info: 0 IMPROPER
Info: 0 CROSSTERM
Info: 0 VDW
Info: 45 VDW_PAIRS
Info: 0 NBTHOLE_PAIRS
Info: To read alchdata from file: mobley_8207196.pdb
Info: To read alchflag data from column: 5
Info: STRUCTURE SUMMARY:
Info: 2959 ATOMS
Info: 2959 BONDS
Info: 42 ANGLES
Info: 55 DIHEDRALS
Info: 0 IMPROPERS
Info: 0 CROSSTERMS
Info: 3048 EXCLUSIONS
Info: 2946 RIGID BONDS
Info: ALCH: 0 ATOMS TO DISAPPEAR IN FINAL STATE
Info: ALCH: 25 ATOMS TO APPEAR IN FINAL STATE
Info: 5931 DEGREES OF FREEDOM
Info: 991 HYDROGEN GROUPS
Info: 4 ATOMS IN LARGEST HYDROGEN GROUP
Info: 991 MIGRATION GROUPS
Info: 4 ATOMS IN LARGEST MIGRATION GROUP
Info: TOTAL MASS = 17821.3 amu
Info: TOTAL CHARGE = -0.000100024 e
Info: MASS DENSITY = 0.974592 g/cm^3
Info: ATOM DENSITY = 0.0974471 atoms/A^3
Info: ADDED 0 IMPLICIT EXCLUSIONS
Info: NONBONDED TABLE R-SQUARED SPACING: 0.0625
Info: NONBONDED TABLE SIZE: 705 POINTS
Info: REMOVING COM VELOCITY -0.0189266 -0.0833118 0.0600921
Info: Use 3D box decompostion in PME FFT.
Info: Updated CUDA force table with 4096 elements.
Info: Updated CUDA LJ table with 9 x 9 elements.
Info: Found 28 unique exclusion lists needing 80 bytes
TCL: Running for 1500000 steps
ETITLE: TS BOND ANGLE DIHED IMPRP ELECT VDW BOUNDARY MISC KINETIC TOTAL TEMP POTENTIAL TOTALAVG TEMPAVG PRESSURE GPRESSURE VOLUME PRESSAVG GPRESSAVG
ENERGY: 0 9.6290 12.9565 11.6681 0.0000 -11156.0841 1437.1765 0.0000 0.0000 1737.0422 -7947.6117 294.7629 -9684.6540 -7947.6117 294.7629 -41.1388 51.0811 30365.1938 -41.1388 51.0811
ENERGY: 300000 5.6062 16.0247 8.3717 0.0000 -11052.0068 1354.8351 0.0000 0.0000 1772.4454 -7894.7237 300.7706 -9667.1691 -7939.7677 297.2877 -639.6168 -620.5815 30474.7347 -373.2271 -327.2562
ENERGY: 600000 4.8687 12.4171 3.8526 0.0000 -11181.0843 1428.9139 0.0000 0.0000 1712.1839 -8018.8480 290.5446 -9731.0319 -7941.8579 297.2352 283.6003 290.9387 29676.2905 -96.9079 -68.1801
ENERGY: 900000 4.1149 11.4826 7.3026 0.0000 -11259.5175 1566.7102 0.0000 0.0000 1774.8333 -7895.0739 301.1758 -9669.9072 -7934.1351 298.3451 907.1824 1088.5373 30466.1342 -45.2889 9.4230
ENERGY: 1200000 4.7439 16.6176 8.4537 0.0000 -11305.9518 1468.3077 0.0000 0.0000 1756.1079 -8051.7210 297.9982 -9807.8288 -7933.5195 299.1562 4.0458 99.3773 30133.5309 33.6884 90.0873
ENERGY: 1500000 3.7005 16.3315 2.8250 0.0000 -11228.4974 1486.1044 0.0000 0.0000 1744.0335 -7975.5026 295.9493 -9719.5360 -7942.7129 298.8642 128.4676 25.7996 30954.8679 42.2116 88.4556
TCL: Running FEP window   2: Lambda1 0.95   Lambda2 0.8999999999999999 [dLambda -0.050000000000000044]
TCL: Setting parameter firsttimestep to 0
TCL: Setting parameter alchLambda to 0.95
Info: NONBONDED TABLE R-SQUARED SPACING: 0.0625
Info: NONBONDED TABLE SIZE: 705 POINTS
TCL: Setting parameter alchLambda2 to 0.8999999999999999
Info: NONBONDED TABLE R-SQUARED SPACING: 0.0625
Info: NONBONDED TABLE SIZE: 705 POINTS
TCL: Running for 1500000 steps
ETITLE: TS BOND ANGLE DIHED IMPRP ELECT VDW BOUNDARY MISC KINETIC TOTAL TEMP POTENTIAL TOTALAVG TEMPAVG PRESSURE GPRESSURE VOLUME PRESSAVG GPRESSAVG
ENERGY: 0 3.7005 16.3315 2.8250 0.0000 -11225.4296 1484.5601 0.0000 0.0000 1743.1598 -7974.8526 295.8010 -9718.0124 -7974.8526 295.8010 -91.5341 -11.7753 30954.8679 -91.5341 -11.7753
ENERGY: 300000 5.8791 14.5152 6.8789 0.0000 -11161.3904 1460.0435 0.0000 0.0000 1680.4728 -7993.6009 285.1635 -9674.0737 -7927.2243 296.0140 69.2595 123.6312 30657.3644 -277.2261 -195.8157
ENERGY: 600000 6.6805 20.7035 3.1312 0.0000 -11079.8068 1385.4006 0.0000 0.0000 1782.6052 -7881.2858 302.4946 -9663.8910 -7910.2434 298.6182 -284.4265 -204.8384 30314.4030 -268.4217 -195.6648
ENERGY: 900000 6.4528 12.6826 3.9633 0.0000 -11176.2661 1428.2200 0.0000 0.0000 1737.3408 -7987.6066 294.8136 -9724.9474 -7925.4177 297.8805 -321.0006 -280.0450 30792.8938 -250.0164 -177.0305
ENERGY: 1200000 8.1593 14.2605 5.7024 0.0000 -11051.2032 1366.1299 0.0000 0.0000 1770.6268 -7886.3242 300.4620 -9656.9510 -7926.3229 299.1304 -276.9410 -266.4601 30550.1127 -226.5044 -163.0539
ENERGY: 1500000 9.0317 12.0306 5.3868 0.0000 -11146.6102 1368.9469 0.0000 0.0000 1773.5729 -7977.6412 300.9619 -9751.2141 -7918.5215 300.3110 -791.1529 -667.9338 30492.7472 -212.3003 -144.0197
TCL: Running FEP window   3: Lambda1 0.8999999999999999 Lambda2 0.8499999999999999 [dLambda -0.050000000000000044]
TCL: Setting parameter firsttimestep to 0
TCL: Setting parameter alchLambda to 0.8999999999999999
Info: NONBONDED TABLE R-SQUARED SPACING: 0.0625
Info: NONBONDED TABLE SIZE: 705 POINTS
TCL: Setting parameter alchLambda2 to 0.8499999999999999
Info: NONBONDED TABLE R-SQUARED SPACING: 0.0625
Info: NONBONDED TABLE SIZE: 705 POINTS
TCL: Running for 1500000 steps
ETITLE: TS BOND ANGLE DIHED IMPRP ELECT VDW BOUNDARY MISC KINETIC TOTAL TEMP POTENTIAL TOTALAVG TEMPAVG PRESSURE GPRESSURE VOLUME PRESSAVG GPRESSAVG
ENERGY: 0 9.0317 12.0306 5.3868 0.0000 -11142.8563 1366.3507 0.0000 0.0000 1772.6782 -7977.3783 300.8101 -9750.0565 -7977.3783 300.8101 -791.1417 -709.4816 30492.7472 -791.1417 -709.4816
ENERGY: 300000 7.5019 12.3184 3.1819 0.0000 -11166.4530 1427.1861 0.0000 0.0000 1778.3953 -7937.8694 301.7802 -9716.2646 -7938.4416 299.9283 -152.3201 -165.0265 30710.1080 -453.5217 -409.5179
ENERGY: 600000 8.5725 10.9965 3.9495 0.0000 -11182.7747 1513.3201 0.0000 0.0000 1778.2178 -7867.7184 301.7501 -9645.9361 -7934.3652 300.0141 760.9078 774.8214 30619.1421 -67.7686 -29.5534
ENERGY: 900000 6.2970 12.1898 4.1206 0.0000 -11220.7916 1461.4035 0.0000 0.0000 1732.6817 -8004.0991 294.0230 -9736.7807 -7926.2176 300.0313 -134.3562 -93.5609 30822.7548 186.2948 228.0455
ENERGY: 1200000 6.7516 12.3037 4.5689 0.0000 -11074.7135 1388.4348 0.0000 0.0000 1768.7323 -7893.9221 300.1405 -9662.6544 -7920.2269 299.8959 -650.3732 -633.0839 31226.2504 55.5955 94.6649
ENERGY: 1500000 7.8140 18.3981 5.4243 0.0000 -11000.3916 1374.2776 0.0000 0.0000 1815.8596 -7778.6181 308.1376 -9594.4777 -7916.0515 300.1089 -461.2241 -383.6490 30685.5958 -10.1146 36.1295
TCL: Running FEP window   4: Lambda1 0.8499999999999999 Lambda2 0.7999999999999998 [dLambda -0.050000000000000044]
TCL: Setting parameter firsttimestep to 0
TCL: Setting parameter alchLambda to 0.8499999999999999
Info: NONBONDED TABLE R-SQUARED SPACING: 0.0625
Info: NONBONDED TABLE SIZE: 705 POINTS
TCL: Setting parameter alchLambda2 to 0.7999999999999998
Info: NONBONDED TABLE R-SQUARED SPACING: 0.0625
Info: NONBONDED TABLE SIZE: 705 POINTS
TCL: Running for 1500000 steps
ETITLE: TS BOND ANGLE DIHED IMPRP ELECT VDW BOUNDARY MISC KINETIC TOTAL TEMP POTENTIAL TOTALAVG TEMPAVG PRESSURE GPRESSURE VOLUME PRESSAVG GPRESSAVG
ENERGY: 0 7.8140 18.3981 5.4243 0.0000 -10998.0208 1374.2321 0.0000 0.0000 1814.9762 -7777.1761 307.9877 -9592.1523 -7777.1761 307.9877 -473.6488 -400.9203 30685.5958 -473.6488 -400.9203
ENERGY: 300000 6.3354 18.0971 2.0050 0.0000 -11074.9178 1419.8267 0.0000 0.0000 1757.9852 -7870.6684 298.3168 -9628.6536 -7854.1370 303.5506 -117.3562 -69.1565 30840.6414 -131.3190 -74.0102
ENERGY: 600000 4.1423 14.9782 3.6210 0.0000 -11190.0290 1475.0169 0.0000 0.0000 1751.5199 -7940.7508 297.2197 -9692.2707 -7865.0859 302.7876 288.1557 417.7277 30195.5077 57.2699 126.5559
ENERGY: 900000 5.3079 16.7549 3.7202 0.0000 -11086.0266 1407.0086 0.0000 0.0000 1816.5305 -7836.7045 308.2515 -9653.2350 -7877.2523 301.8229 -317.6349 -288.2699 30940.3168 -140.1972 -80.6344
ENERGY: 1200000 5.3790 14.9888 9.7637 0.0000 -11155.6562 1438.0816 0.0000 0.0000 1767.9826 -7919.4604 300.0133 -9687.4430 -7882.0331 301.5609 -172.0759 -156.6088 30753.0115 -124.3849 -68.1664
ENERGY: 1500000 6.0777 12.9872 7.5924 0.0000 -11108.9821 1382.4558 0.0000 0.0000 1762.2451 -7937.6239 299.0396 -9699.8690 -7887.3006 301.4376 -702.8548 -641.4385 30657.5880 -173.0024 -109.6565
TCL: Running FEP window   5: Lambda1 0.7999999999999998 Lambda2 0.7499999999999998 [dLambda -0.050000000000000044]
TCL: Setting parameter firsttimestep to 0
TCL: Setting parameter alchLambda to 0.7999999999999998
Info: NONBONDED TABLE R-SQUARED SPACING: 0.0625
Info: NONBONDED TABLE SIZE: 705 POINTS
TCL: Setting parameter alchLambda2 to 0.7499999999999998
Info: NONBONDED TABLE R-SQUARED SPACING: 0.0625
Info: NONBONDED TABLE SIZE: 705 POINTS
TCL: Running for 1500000 steps
ETITLE: TS BOND ANGLE DIHED IMPRP ELECT VDW BOUNDARY MISC KINETIC TOTAL TEMP POTENTIAL TOTALAVG TEMPAVG PRESSURE GPRESSURE VOLUME PRESSAVG GPRESSAVG
ENERGY: 0 6.0777 12.9872 7.5924 0.0000 -11105.7744 1380.4698 0.0000 0.0000 1761.3871 -7937.2602 298.8940 -9698.6473 -7937.2602 298.8940 -762.1137 -673.5173 30657.5880 -762.1137 -673.5173
ENERGY: 300000 6.9863 14.7168 7.2044 0.0000 -11130.8085 1439.1112 0.0000 0.0000 1769.7869 -7893.0028 300.3194 -9662.7897 -7927.6281 301.0406 -9.1412 6.4887 30366.5552 -249.4203 -185.9320
ENERGY: 600000 6.7832 19.0454 5.6551 0.0000 -10963.1973 1319.3060 0.0000 0.0000 1781.7199 -7830.6878 302.3444 -9612.4077 -7903.6764 301.7737 -1214.3548 -1092.9682 31114.1521 -291.5509 -232.5321
ENERGY: 900000 6.8631 19.2897 10.0692 0.0000 -11167.7019 1398.8226 0.0000 0.0000 1757.5590 -7975.0982 298.2445 -9732.6573 -7914.8561 300.3219 -367.2561 -409.8539 30291.3136 -113.4322 -68.1253
ENERGY: 1200000 7.9159 12.6192 2.5073 0.0000 -11253.0651 1467.9197 0.0000 0.0000 1750.9550 -8011.1479 297.1238 -9762.1029 -7930.7203 298.9268 -76.9747 -38.4836 30502.2912 -97.2167 -58.4118
ENERGY: 1500000 5.7696 16.2405 3.6415 0.0000 -11152.6145 1430.6554 0.0000 0.0000 1785.0366 -7911.2710 302.9072 -9696.3075 -7925.7832 299.5159 -432.3418 -318.2650 30928.2883 -147.7114 -93.0692
TCL: Running FEP window   6: Lambda1 0.7499999999999998 Lambda2 0.6999999999999997 [dLambda -0.050000000000000044]
TCL: Setting parameter firsttimestep to 0
TCL: Setting parameter alchLambda to 0.7499999999999998
Info: NONBONDED TABLE R-SQUARED SPACING: 0.0625
Info: NONBONDED TABLE SIZE: 705 POINTS
TCL: Setting parameter alchLambda2 to 0.6999999999999997
Info: NONBONDED TABLE R-SQUARED SPACING: 0.0625
Info: NONBONDED TABLE SIZE: 705 POINTS
TCL: Running for 1500000 steps
ETITLE: TS BOND ANGLE DIHED IMPRP ELECT VDW BOUNDARY MISC KINETIC TOTAL TEMP POTENTIAL TOTALAVG TEMPAVG PRESSURE GPRESSURE VOLUME PRESSAVG GPRESSAVG
ENERGY: 0 5.7696 16.2405 3.6415 0.0000 -11149.6492 1429.9646 0.0000 0.0000 1784.1936 -7909.8393 302.7641 -9694.0330 -7909.8393 302.7641 -413.7264 -335.2487 30928.2883 -413.7264 -335.2487
ENERGY: 300000 5.2394 16.2724 2.9997 0.0000 -11135.7591 1462.6489 0.0000 0.0000 1731.8565 -7916.7422 293.8829 -9648.5987 -7897.8844 301.1414 193.3695 243.0154 30650.9530 -12.8577 38.8099
ENERGY: 600000 9.1460 19.6966 6.8053 0.0000 -11180.0234 1438.1825 0.0000 0.0000 1786.0661 -7920.1269 303.0819 -9706.1930 -7894.4519 301.2438 -211.9817 -123.7665 30735.9390 -86.9964 -38.3743
ENERGY: 900000 4.7818 17.6101 4.3218 0.0000 -10977.9878 1356.1656 0.0000 0.0000 1795.1350 -7799.9734 304.6208 -9595.1085 -7875.9808 302.6167 -680.7486 -666.4968 30855.2561 -66.3066 -27.9078
ENERGY: 1200000 5.2550 12.3426 6.7222 0.0000 -11079.7717 1381.6457 0.0000 0.0000 1792.9254 -7880.8808 304.2459 -9673.8062 -7882.2928 301.9084 -585.5242 -500.8078 30535.4909 -207.1067 -146.6642
ENERGY: 1500000 10.2108 14.0454 6.0480 0.0000 -11004.6229 1345.0015 0.0000 0.0000 1772.1940 -7857.1232 300.7279 -9629.3172 -7882.7561 301.6455 -359.5711 -301.0565 30149.4963 -183.0914 -123.5407
TCL: Running FEP window   7: Lambda1 0.6999999999999997 Lambda2 0.6499999999999997 [dLambda -0.050000000000000044]
TCL: Setting parameter firsttimestep to 0
TCL: Setting parameter alchLambda to 0.6999999999999997
Info: NONBONDED TABLE R-SQUARED SPACING: 0.0625
Info: NONBONDED TABLE SIZE: 705 POINTS
TCL: Setting parameter alchLambda2 to 0.6499999999999997
Info: NONBONDED TABLE R-SQUARED SPACING: 0.0625
Info: NONBONDED TABLE SIZE: 705 POINTS
TCL: Running for 1500000 steps
ETITLE: TS BOND ANGLE DIHED IMPRP ELECT VDW BOUNDARY MISC KINETIC TOTAL TEMP POTENTIAL TOTALAVG TEMPAVG PRESSURE GPRESSURE VOLUME PRESSAVG GPRESSAVG
ENERGY: 0 10.2108 14.0454 6.0480 0.0000 -11003.0559 1345.8248 0.0000 0.0000 1771.3253 -7855.6015 300.5805 -9626.9269 -7855.6015 300.5805 -382.8306 -301.7253 30149.4963 -382.8306 -301.7253
ENERGY: 300000 7.6647 14.9195 3.4082 0.0000 -11158.7863 1454.6186 0.0000 0.0000 1714.2435 -7963.9318 290.8941 -9678.1753 -7937.2306 296.7033 -51.9117 34.0437 30248.6182 -184.8026 -120.4342
ENERGY: 600000 5.7995 15.7158 2.2411 0.0000 -11110.4183 1393.4555 0.0000 0.0000 1781.8300 -7911.3764 302.3631 -9693.2064 -7908.4887 299.1607 -390.5243 -397.5699 30732.7129 -157.5032 -111.6324
ENERGY: 900000 7.2764 15.1552 5.6132 0.0000 -11099.8776 1353.2163 0.0000 0.0000 1752.1691 -7966.4473 297.3298 -9718.6165 -7901.9050 300.0484 -723.3245 -656.0009 30290.8286 -250.3888 -201.0782
ENERGY: 1200000 8.8726 6.1233 4.7541 0.0000 -11140.5502 1426.1415 0.0000 0.0000 1721.2037 -7973.4551 292.0752 -9694.6587 -7899.7743 299.3428 16.4360 103.8912 30150.8469 -223.4471 -169.3138
ENERGY: 1500000 9.5771 9.5942 3.2403 0.0000 -11059.6852 1367.5085 0.0000 0.0000 1782.7486 -7887.0165 302.5189 -9669.7651 -7886.4894 300.6414 -612.0167 -528.4374 30610.1090 -187.5907 -127.9067
TCL: Running FEP window   8: Lambda1 0.6499999999999997 Lambda2 0.5999999999999996 [dLambda -0.050000000000000044]
TCL: Setting parameter firsttimestep to 0
TCL: Setting parameter alchLambda to 0.6499999999999997
Info: NONBONDED TABLE R-SQUARED SPACING: 0.0625
Info: NONBONDED TABLE SIZE: 705 POINTS
TCL: Setting parameter alchLambda2 to 0.5999999999999996
Info: NONBONDED TABLE R-SQUARED SPACING: 0.0625
Info: NONBONDED TABLE SIZE: 705 POINTS
TCL: Running for 1500000 steps
ETITLE: TS BOND ANGLE DIHED IMPRP ELECT VDW BOUNDARY MISC KINETIC TOTAL TEMP POTENTIAL TOTALAVG TEMPAVG PRESSURE GPRESSURE VOLUME PRESSAVG GPRESSAVG
ENERGY: 0 9.5771 9.5942 3.2403 0.0000 -11056.3810 1367.7100 0.0000 0.0000 1781.8802 -7884.3792 302.3716 -9666.2594 -7884.3792 302.3716 -630.2265 -532.9947 30610.1090 -630.2265 -532.9947
ENERGY: 300000 8.2775 12.3547 3.2287 0.0000 -11200.3147 1460.9776 0.0000 0.0000 1750.3744 -7965.1017 297.0253 -9715.4761 -7931.2406 296.5043 306.0524 396.6216 29799.9640 27.4591 68.7545
ENERGY: 600000 5.6427 11.7198 5.9454 0.0000 -11046.1493 1414.3889 0.0000 0.0000 1787.1810 -7821.2715 303.2711 -9608.4525 -7911.8466 297.9026 116.3106 72.0568 30588.4890 -35.6507 -0.6464
ENERGY: 900000 6.1509 16.3339 6.6814 0.0000 -11140.9038 1453.8589 0.0000 0.0000 1736.2115 -7921.6671 294.6219 -9657.8786 -7909.0917 296.6987 -86.0829 -75.5615 30657.1149 -113.0307 -83.7063
ENERGY: 1200000 7.2194 18.0235 3.2468 0.0000 -11363.6514 1613.2933 0.0000 0.0000 1817.2017 -7904.6668 308.3654 -9721.8685 -7900.6458 298.5914 1413.6623 1454.9737 30108.7231 66.6359 98.7536
ENERGY: 1500000 7.5426 18.3689 3.5428 0.0000 -11105.8749 1385.6405 0.0000 0.0000 1823.4088 -7867.3713 309.4187 -9690.7801 -7904.2396 299.4136 -295.0290 -197.0021 30174.4369 19.5186 60.0624
TCL: Running FEP window   9: Lambda1 0.5999999999999996 Lambda2 0.5499999999999996 [dLambda -0.050000000000000044]
TCL: Setting parameter firsttimestep to 0
TCL: Setting parameter alchLambda to 0.5999999999999996
Info: NONBONDED TABLE R-SQUARED SPACING: 0.0625
Info: NONBONDED TABLE SIZE: 705 POINTS
TCL: Setting parameter alchLambda2 to 0.5499999999999996
Info: NONBONDED TABLE R-SQUARED SPACING: 0.0625
Info: NONBONDED TABLE SIZE: 705 POINTS
TCL: Running for 1500000 steps
ETITLE: TS BOND ANGLE DIHED IMPRP ELECT VDW BOUNDARY MISC KINETIC TOTAL TEMP POTENTIAL TOTALAVG TEMPAVG PRESSURE GPRESSURE VOLUME PRESSAVG GPRESSAVG
ENERGY: 0 7.5426 18.3689 3.5428 0.0000 -11103.5352 1385.5702 0.0000 0.0000 1822.5336 -7865.9771 309.2702 -9688.5107 -7865.9771 309.2702 -281.7160 -205.6896 30174.4369 -281.7160 -205.6896
ENERGY: 300000 7.7136 15.3554 5.8927 0.0000 -11115.6020 1392.2158 0.0000 0.0000 1765.8721 -7928.5524 299.6551 -9694.4245 -7904.5480 304.4848 -290.7258 -181.8244 30055.8424 -227.0662 -137.8906
ENERGY: 600000 8.5702 15.9471 5.1331 0.0000 -11169.6288 1519.2790 0.0000 0.0000 1822.0237 -7798.6756 309.1836 -9620.6993 -7877.7080 305.7678 449.4209 471.4897 30868.8046 -257.8056 -188.7402
ENERGY: 900000 5.6326 13.8383 2.5899 0.0000 -11201.3558 1540.4664 0.0000 0.0000 1767.9159 -7870.9127 300.0019 -9638.8286 -7875.7343 303.9404 405.3954 531.2683 31002.2681 -295.7321 -224.6120
ENERGY: 1200000 5.0148 17.1163 3.4709 0.0000 -11091.0323 1397.9676 0.0000 0.0000 1793.1690 -7874.2937 304.2872 -9667.4627 -7877.7946 303.9401 -322.1813 -219.7611 30790.2077 -268.3526 -199.3351
ENERGY: 1500000 8.6671 17.3403 4.0604 0.0000 -10918.3473 1314.9867 0.0000 0.0000 1731.0401 -7842.2527 293.7444 -9573.2929 -7877.0770 302.2683 -633.8032 -553.5863 30754.9098 -283.6119 -210.2061
TCL: Running FEP window  10: Lambda1 0.5499999999999996 Lambda2 0.4999999999999996 [dLambda -0.04999999999999999]
TCL: Setting parameter firsttimestep to 0
TCL: Setting parameter alchLambda to 0.5499999999999996
Info: NONBONDED TABLE R-SQUARED SPACING: 0.0625
Info: NONBONDED TABLE SIZE: 705 POINTS
TCL: Setting parameter alchLambda2 to 0.4999999999999996
Info: NONBONDED TABLE R-SQUARED SPACING: 0.0625
Info: NONBONDED TABLE SIZE: 705 POINTS
TCL: Running for 1500000 steps
ETITLE: TS BOND ANGLE DIHED IMPRP ELECT VDW BOUNDARY MISC KINETIC TOTAL TEMP POTENTIAL TOTALAVG TEMPAVG PRESSURE GPRESSURE VOLUME PRESSAVG GPRESSAVG
ENERGY: 0 8.6671 17.3403 4.0604 0.0000 -10916.4072 1314.7600 0.0000 0.0000 1730.1682 -7841.4113 293.5964 -9571.5795 -7841.4113 293.5964 -636.2114 -561.7028 30754.9098 -636.2114 -561.7028
ENERGY: 300000 7.4133 12.4499 2.9848 0.0000 -11042.3163 1368.5591 0.0000 0.0000 1754.0516 -7896.8576 297.6493 -9650.9092 -7855.6537 302.9954 -545.3584 -477.0666 30400.7203 -476.1930 -414.0846
ENERGY: 600000 12.7824 16.9256 5.6817 0.0000 -10971.5343 1297.0283 0.0000 0.0000 1710.8166 -7928.2997 290.3126 -9639.1163 -7889.1052 300.8809 -1365.1355 -1351.0048 30611.8838 -441.1074 -381.2623
ENERGY: 900000 6.4985 22.0087 4.0538 0.0000 -11047.4154 1382.5740 0.0000 0.0000 1777.5295 -7854.7510 301.6333 -9632.2805 -7886.0271 299.5381 -511.4518 -462.4878 30491.1952 -314.5421 -251.8791
ENERGY: 1200000 5.5645 18.2310 4.5909 0.0000 -11137.0590 1485.9970 0.0000 0.0000 1760.0587 -7862.6168 298.6686 -9622.6755 -7896.6061 299.1980 377.8770 451.5460 30674.1186 -272.2207 -204.9592
ENERGY: 1500000 9.2188 14.4028 4.9675 0.0000 -10953.2677 1370.7293 0.0000 0.0000 1793.3962 -7760.5531 304.3257 -9553.9493 -7885.2969 299.9216 -299.5889 -219.2534 30745.7700 -121.1183 -60.7171
TCL: Running FEP window  11: Lambda1 0.4999999999999996 Lambda2 0.4499999999999996 [dLambda -0.04999999999999999]
TCL: Setting parameter firsttimestep to 0
TCL: Setting parameter alchLambda to 0.4999999999999996
Info: NONBONDED TABLE R-SQUARED SPACING: 0.0625
Info: NONBONDED TABLE SIZE: 705 POINTS
TCL: Setting parameter alchLambda2 to 0.4499999999999996
Info: NONBONDED TABLE R-SQUARED SPACING: 0.0625
Info: NONBONDED TABLE SIZE: 705 POINTS
TCL: Running for 1500000 steps
ETITLE: TS BOND ANGLE DIHED IMPRP ELECT VDW BOUNDARY MISC KINETIC TOTAL TEMP POTENTIAL TOTALAVG TEMPAVG PRESSURE GPRESSURE VOLUME PRESSAVG GPRESSAVG
ENERGY: 0 9.2188 14.4028 4.9675 0.0000 -10952.7113 1371.2922 0.0000 0.0000 1792.5021 -7760.3279 304.1740 -9552.8300 -7760.3279 304.1740 -308.3813 -222.7968 30745.7700 -308.3813 -222.7968
ENERGY: 300000 5.7943 15.2859 4.1984 0.0000 -11198.5643 1460.8221 0.0000 0.0000 1790.1135 -7922.3501 303.7687 -9712.4636 -7870.8031 301.9788 7.5700 0.7326 30298.0269 -306.8247 -248.1840
ENERGY: 600000 7.0905 12.5393 2.1637 0.0000 -11053.6463 1383.4480 0.0000 0.0000 1769.5122 -7878.8927 300.2728 -9648.4049 -7853.3901 303.2683 -250.7635 -175.0287 30246.7394 -33.1942 5.6798
ENERGY: 900000 5.0892 14.0172 2.6734 0.0000 -11178.3988 1457.9634 0.0000 0.0000 1799.5855 -7899.0701 305.3760 -9698.6556 -7881.2026 302.0419 128.8619 195.6234 30096.6275 -21.7502 18.9805
ENERGY: 1200000 6.5294 13.4842 2.4245 0.0000 -11165.2004 1415.9330 0.0000 0.0000 1730.3491 -7996.4802 293.6271 -9726.8293 -7894.3154 301.3433 -255.8445 -229.6018 30288.1829 -8.8238 34.3507
ENERGY: 1500000 9.1604 15.8899 4.2148 0.0000 -11196.6305 1518.2695 0.0000 0.0000 1731.5596 -7917.5364 293.8325 -9649.0960 -7899.4135 299.9123 854.7339 888.9036 30373.0561 -42.0085 7.6524
TCL: Running FEP window  12: Lambda1 0.4499999999999996 Lambda2 0.39999999999999963 [dLambda -0.04999999999999999]
TCL: Setting parameter firsttimestep to 0
TCL: Setting parameter alchLambda to 0.4499999999999996
Info: NONBONDED TABLE R-SQUARED SPACING: 0.0625
Info: NONBONDED TABLE SIZE: 705 POINTS
TCL: Setting parameter alchLambda2 to 0.39999999999999963
Info: NONBONDED TABLE R-SQUARED SPACING: 0.0625
Info: NONBONDED TABLE SIZE: 705 POINTS
TCL: Running for 1500000 steps
ETITLE: TS BOND ANGLE DIHED IMPRP ELECT VDW BOUNDARY MISC KINETIC TOTAL TEMP POTENTIAL TOTALAVG TEMPAVG PRESSURE GPRESSURE VOLUME PRESSAVG GPRESSAVG
ENERGY: 0 9.1604 15.8899 4.2148 0.0000 -11196.6311 1519.2031 0.0000 0.0000 1730.6767 -7917.4862 293.6827 -9648.1629 -7917.4862 293.6827 797.7709 887.9776 30373.0561 797.7709 887.9776
ENERGY: 300000 10.6688 14.9703 5.7537 0.0000 -11165.3907 1389.2454 0.0000 0.0000 1769.8432 -7974.9093 300.3290 -9744.7525 -7924.4327 301.9751 -688.9747 -563.8477 30558.0981 247.1245 331.3541
ENERGY: 600000 9.1823 13.0364 5.1087 0.0000 -11142.7424 1453.8318 0.0000 0.0000 1759.5824 -7902.0007 298.5878 -9661.5831 -7927.3504 300.2637 -1.1279 40.9481 30588.6082 144.8787 222.1036
ENERGY: 900000 6.6892 14.0749 4.7784 0.0000 -11198.0945 1472.2150 0.0000 0.0000 1802.9229 -7897.4141 305.9424 -9700.3370 -7919.0459 301.0154 247.6725 293.2269 30321.3876 139.6511 208.1753
ENERGY: 1200000 9.4851 16.4840 3.1976 0.0000 -11270.9049 1491.9743 0.0000 0.0000 1796.7433 -7953.0205 304.8937 -9749.7638 -7917.0191 301.1178 491.2955 561.0626 29668.6924 212.6932 282.1603
ENERGY: 1500000 8.0109 22.9184 5.2388 0.0000 -11058.5832 1373.5793 0.0000 0.0000 1769.5333 -7879.3026 300.2764 -9648.8359 -7915.3417 300.1129 -373.6390 -318.0170 30285.2560 168.3665 234.4053
TCL: Running FEP window  13: Lambda1 0.39999999999999963 Lambda2 0.34999999999999964 [dLambda -0.04999999999999999]
TCL: Setting parameter firsttimestep to 0
TCL: Setting parameter alchLambda to 0.39999999999999963
Info: NONBONDED TABLE R-SQUARED SPACING: 0.0625
Info: NONBONDED TABLE SIZE: 705 POINTS
TCL: Setting parameter alchLambda2 to 0.34999999999999964
Info: NONBONDED TABLE R-SQUARED SPACING: 0.0625
Info: NONBONDED TABLE SIZE: 705 POINTS
TCL: Running for 1500000 steps
ETITLE: TS BOND ANGLE DIHED IMPRP ELECT VDW BOUNDARY MISC KINETIC TOTAL TEMP POTENTIAL TOTALAVG TEMPAVG PRESSURE GPRESSURE VOLUME PRESSAVG GPRESSAVG
ENERGY: 0 8.0109 22.9184 5.2388 0.0000 -11058.5842 1372.8292 0.0000 0.0000 1768.6220 -7880.9649 300.1218 -9649.5869 -7880.9649 300.1218 -406.1569 -334.6993 30285.2560 -406.1569 -334.6993
ENERGY: 300000 4.9382 14.3083 6.3163 0.0000 -11096.6334 1427.1674 0.0000 0.0000 1755.2126 -7888.6906 297.8463 -9643.9032 -7896.5045 299.1511 -224.1072 -184.0577 30862.6776 -125.7037 -65.2453
ENERGY: 600000 9.7309 16.3862 5.1699 0.0000 -11103.2155 1423.3176 0.0000 0.0000 1763.5889 -7885.0221 299.2677 -9648.6110 -7886.6242 301.4655 -104.3138 -56.4879 30161.7127 34.9945 101.2835
ENERGY: 900000 9.1776 18.3019 4.6098 0.0000 -11053.8103 1414.6109 0.0000 0.0000 1759.4055 -7847.7046 298.5578 -9607.1101 -7882.9293 300.6274 -50.4355 -9.9016 30323.2657 76.2509 135.8900
ENERGY: 1200000 9.6536 17.3026 2.5846 0.0000 -11296.9928 1470.1252 0.0000 0.0000 1816.0666 -7981.2602 308.1728 -9797.3268 -7895.7937 300.6725 -95.7703 -51.0000 30064.5871 2.3097 61.3548
ENERGY: 1500000 6.8378 14.1055 4.4698 0.0000 -10980.7722 1380.3137 0.0000 0.0000 1801.5928 -7773.4525 305.7167 -9575.0453 -7891.3158 300.9036 -223.3450 -134.0973 30609.2523 54.8737 122.0517
TCL: Running FEP window  14: Lambda1 0.34999999999999964 Lambda2 0.29999999999999966 [dLambda -0.04999999999999999]
TCL: Setting parameter firsttimestep to 0
TCL: Setting parameter alchLambda to 0.34999999999999964
Info: NONBONDED TABLE R-SQUARED SPACING: 0.0625
Info: NONBONDED TABLE SIZE: 705 POINTS
TCL: Setting parameter alchLambda2 to 0.29999999999999966
Info: NONBONDED TABLE R-SQUARED SPACING: 0.0625
Info: NONBONDED TABLE SIZE: 705 POINTS
TCL: Running for 1500000 steps
ETITLE: TS BOND ANGLE DIHED IMPRP ELECT VDW BOUNDARY MISC KINETIC TOTAL TEMP POTENTIAL TOTALAVG TEMPAVG PRESSURE GPRESSURE VOLUME PRESSAVG GPRESSAVG
ENERGY: 0 6.8378 14.1055 4.4698 0.0000 -10980.7735 1380.9030 0.0000 0.0000 1800.6626 -7773.7947 305.5588 -9574.4573 -7773.7947 305.5588 -223.1147 -135.0604 30609.2523 -223.1147 -135.0604
ENERGY: 300000 6.8073 18.9627 2.9460 0.0000 -11271.0495 1532.4200 0.0000 0.0000 1767.6395 -7942.2739 299.9550 -9709.9134 -7850.6043 299.6816 594.3917 727.1884 29833.3299 -386.1613 -320.0738
ENERGY: 600000 3.3269 16.7477 4.4918 0.0000 -11049.5545 1455.7229 0.0000 0.0000 1765.7093 -7803.5557 299.6275 -9569.2651 -7861.8744 298.9311 177.1939 232.4660 30839.1659 -114.3560 -45.9797
ENERGY: 900000 10.2624 16.7572 6.8103 0.0000 -11234.0997 1586.9442 0.0000 0.0000 1756.2405 -7857.0852 298.0207 -9613.3257 -7860.8582 299.8792 1144.3716 1246.5708 30621.4462 -2.9701 67.2793
ENERGY: 1200000 6.9844 15.4597 3.1838 0.0000 -11113.4831 1446.0367 0.0000 0.0000 1784.9609 -7856.8576 302.8944 -9641.8185 -7871.0157 299.9668 53.0888 89.9116 30165.6689 -64.7215 -4.1574
ENERGY: 1500000 5.2349 11.1593 2.3195 0.0000 -11020.7548 1376.5030 0.0000 0.0000 1798.0703 -7827.4678 305.1189 -9625.5381 -7860.5776 300.4793 -252.1866 -174.3744 30320.7415 -120.8280 -65.7488
TCL: Running FEP window  15: Lambda1 0.29999999999999966 Lambda2 0.24999999999999967 [dLambda -0.04999999999999999]
TCL: Setting parameter firsttimestep to 0
TCL: Setting parameter alchLambda to 0.29999999999999966
Info: NONBONDED TABLE R-SQUARED SPACING: 0.0625
Info: NONBONDED TABLE SIZE: 705 POINTS
TCL: Setting parameter alchLambda2 to 0.24999999999999967
Info: NONBONDED TABLE R-SQUARED SPACING: 0.0625
Info: NONBONDED TABLE SIZE: 705 POINTS
TCL: Running for 1500000 steps
ETITLE: TS BOND ANGLE DIHED IMPRP ELECT VDW BOUNDARY MISC KINETIC TOTAL TEMP POTENTIAL TOTALAVG TEMPAVG PRESSURE GPRESSURE VOLUME PRESSAVG GPRESSAVG
ENERGY: 0 5.2349 11.1593 2.3195 0.0000 -11020.7563 1377.0619 0.0000 0.0000 1797.1883 -7827.7924 304.9692 -9624.9806 -7827.7924 304.9692 -264.1562 -178.1646 30320.7415 -264.1562 -178.1646
ENERGY: 300000 11.4075 17.1715 8.0078 0.0000 -11095.1653 1414.7415 0.0000 0.0000 1757.3858 -7886.4512 298.2151 -9643.8371 -7869.9270 302.1666 -270.8448 -234.4734 30869.2665 60.0568 125.1397
ENERGY: 600000 11.4259 20.2363 4.0464 0.0000 -10906.8217 1334.6156 0.0000 0.0000 1760.1598 -7776.3377 298.6858 -9536.4975 -7863.7039 301.7021 -654.7651 -638.0523 30973.7404 -92.3454 -24.2713
ENERGY: 900000 13.5462 15.1883 4.2981 0.0000 -11214.7990 1484.6790 0.0000 0.0000 1768.8028 -7928.2846 300.1524 -9697.0874 -7875.0576 301.9644 470.5956 578.5079 29836.9543 -82.7096 4.0413
ENERGY: 1200000 6.2103 22.4787 7.1873 0.0000 -11111.5867 1411.5930 0.0000 0.0000 1790.2905 -7873.8269 303.7987 -9664.1174 -7870.4062 302.3603 -68.0388 18.6159 29972.7687 -18.7670 64.3031
ENERGY: 1500000 4.2041 14.8270 4.2354 0.0000 -11185.0753 1507.8036 0.0000 0.0000 1681.9780 -7972.0271 285.4189 -9654.0051 -7887.2966 300.5113 598.5836 621.0906 30078.7033 -14.1680 63.3116
TCL: Running FEP window  16: Lambda1 0.24999999999999967 Lambda2 0.19999999999999968 [dLambda -0.04999999999999999]
TCL: Setting parameter firsttimestep to 0
TCL: Setting parameter alchLambda to 0.24999999999999967
Info: NONBONDED TABLE R-SQUARED SPACING: 0.0625
Info: NONBONDED TABLE SIZE: 705 POINTS
TCL: Setting parameter alchLambda2 to 0.19999999999999968
Info: NONBONDED TABLE R-SQUARED SPACING: 0.0625
Info: NONBONDED TABLE SIZE: 705 POINTS
TCL: Running for 1500000 steps
ETITLE: TS BOND ANGLE DIHED IMPRP ELECT VDW BOUNDARY MISC KINETIC TOTAL TEMP POTENTIAL TOTALAVG TEMPAVG PRESSURE GPRESSURE VOLUME PRESSAVG GPRESSAVG
ENERGY: 0 4.2041 14.8270 4.2354 0.0000 -11185.0753 1508.6403 0.0000 0.0000 1681.0797 -7972.0887 285.2665 -9653.1684 -7972.0887 285.2665 534.2881 616.8886 30078.7033 534.2881 616.8886
ENERGY: 300000 4.9060 13.8138 2.4274 0.0000 -11026.3031 1426.8644 0.0000 0.0000 1757.4192 -7820.8723 298.2207 -9578.2916 -7912.5494 295.5848 3.7690 -12.6609 30484.2335 192.3644 238.9930
ENERGY: 600000 6.4055 17.9979 3.3995 0.0000 -11190.0903 1486.7072 0.0000 0.0000 1744.8598 -7930.7204 296.0895 -9675.5802 -7935.9009 296.0242 304.9725 382.4421 30402.1725 109.5291 169.3227
ENERGY: 900000 13.6146 18.2983 6.6603 0.0000 -11277.4773 1487.6270 0.0000 0.0000 1739.8207 -8011.4564 295.2344 -9751.2771 -7920.5523 298.5199 289.3854 319.0872 30396.2198 304.9918 353.1344
ENERGY: 1200000 4.7379 16.5364 7.0208 0.0000 -11223.2614 1534.6087 0.0000 0.0000 1743.4244 -7916.9333 295.8459 -9660.3576 -7911.2230 298.2712 827.4323 814.2986 30122.9503 285.5053 334.3932
ENERGY: 1500000 6.6102 14.4939 4.7986 0.0000 -11109.2361 1403.1256 0.0000 0.0000 1772.5555 -7907.6522 300.7892 -9680.2078 -7912.8294 298.2055 -208.8086 -110.3339 30067.1229 215.2716 267.3864
TCL: Running FEP window  17: Lambda1 0.19999999999999968 Lambda2 0.1499999999999997 [dLambda -0.04999999999999999]
TCL: Setting parameter firsttimestep to 0
TCL: Setting parameter alchLambda to 0.19999999999999968
Info: NONBONDED TABLE R-SQUARED SPACING: 0.0625
Info: NONBONDED TABLE SIZE: 705 POINTS
TCL: Setting parameter alchLambda2 to 0.1499999999999997
Info: NONBONDED TABLE R-SQUARED SPACING: 0.0625
Info: NONBONDED TABLE SIZE: 705 POINTS
TCL: Running for 1500000 steps
ETITLE: TS BOND ANGLE DIHED IMPRP ELECT VDW BOUNDARY MISC KINETIC TOTAL TEMP POTENTIAL TOTALAVG TEMPAVG PRESSURE GPRESSURE VOLUME PRESSAVG GPRESSAVG
ENERGY: 0 6.6102 14.4939 4.7986 0.0000 -11109.2365 1403.4381 0.0000 0.0000 1771.6673 -7908.2284 300.6385 -9679.8957 -7908.2284 300.6385 -198.6445 -112.3404 30067.1229 -198.6445 -112.3404
ENERGY: 300000 7.3394 13.2147 2.2214 0.0000 -11028.6358 1387.7773 0.0000 0.0000 1779.2877 -7838.7953 301.9316 -9618.0830 -7927.4812 299.9807 -433.4869 -359.1115 30495.3813 -439.9576 -388.9007
ENERGY: 600000 5.6606 18.8164 4.5590 0.0000 -11077.6040 1336.8039 0.0000 0.0000 1754.5969 -7957.1672 297.7418 -9711.7642 -7926.7472 299.5377 -1255.4358 -1274.9359 30688.7816 -317.7992 -279.9411
ENERGY: 900000 8.3583 10.7608 4.9314 0.0000 -11157.4712 1436.2078 0.0000 0.0000 1727.4439 -7969.7691 293.1341 -9697.2129 -7913.7845 299.9484 83.5967 98.1490 30068.4981 -177.7361 -133.8445
ENERGY: 1200000 10.1477 16.6656 5.5608 0.0000 -11104.4570 1456.5159 0.0000 0.0000 1792.9483 -7822.6187 304.2498 -9615.5670 -7904.4115 300.8813 167.5444 197.6834 30311.0757 -158.6462 -105.4117
ENERGY: 1500000 7.9401 19.7364 3.6527 0.0000 -11005.7431 1356.4429 0.0000 0.0000 1765.4575 -7852.5135 299.5848 -9617.9710 -7909.0125 300.2191 -351.4401 -315.9580 30219.9224 -158.9155 -109.2313
TCL: Running FEP window  18: Lambda1 0.1499999999999997 Lambda2 0.09999999999999969 [dLambda -0.05 ]
TCL: Setting parameter firsttimestep to 0
TCL: Setting parameter alchLambda to 0.1499999999999997
Info: NONBONDED TABLE R-SQUARED SPACING: 0.0625
Info: NONBONDED TABLE SIZE: 705 POINTS
TCL: Setting parameter alchLambda2 to 0.09999999999999969
Info: NONBONDED TABLE R-SQUARED SPACING: 0.0625
Info: NONBONDED TABLE SIZE: 705 POINTS
TCL: Running for 1500000 steps
ETITLE: TS BOND ANGLE DIHED IMPRP ELECT VDW BOUNDARY MISC KINETIC TOTAL TEMP POTENTIAL TOTALAVG TEMPAVG PRESSURE GPRESSURE VOLUME PRESSAVG GPRESSAVG
ENERGY: 0 7.9401 19.7364 3.6527 0.0000 -11005.7429 1356.7573 0.0000 0.0000 1764.5528 -7853.1037 299.4312 -9617.6565 -7853.1037 299.4312 -407.7037 -319.5058 30219.9224 -407.7037 -319.5058
ENERGY: 300000 6.5280 16.5798 3.2955 0.0000 -11305.3154 1534.8292 0.0000 0.0000 1796.5403 -7947.5426 304.8593 -9744.0829 -7897.8880 299.8535 460.2063 536.6232 30086.6134 124.2032 224.6393
ENERGY: 600000 4.9471 11.0202 4.3615 0.0000 -11223.2601 1460.1369 0.0000 0.0000 1756.0352 -7986.7591 297.9859 -9742.7943 -7891.8434 299.9343 -189.4469 -108.5220 30251.1689 192.3407 272.0186
ENERGY: 900000 4.1290 15.5878 9.0202 0.0000 -11136.4507 1408.0356 0.0000 0.0000 1799.7068 -7899.9712 305.3966 -9699.6781 -7912.7019 299.8330 -521.9541 -461.3985 30347.8592 163.4320 238.5670
ENERGY: 1200000 9.3725 16.1470 4.5961 0.0000 -11172.4483 1492.6154 0.0000 0.0000 1707.4158 -7942.3014 289.7355 -9649.7172 -7909.3834 298.5415 9.5938 100.9121 30256.3324 136.5129 213.1077
ENERGY: 1500000 7.9240 15.4212 3.5974 0.0000 -11159.7140 1443.2988 0.0000 0.0000 1707.3339 -7982.1387 289.7216 -9689.4726 -7916.1790 298.1140 -11.7582 43.6404 30250.6174 165.9827 237.0713
TCL: Running FEP window  19: Lambda1 0.09999999999999969 Lambda2 0.049999999999999684 [dLambda -0.05 ]
TCL: Setting parameter firsttimestep to 0
TCL: Setting parameter alchLambda to 0.09999999999999969
Info: NONBONDED TABLE R-SQUARED SPACING: 0.0625
Info: NONBONDED TABLE SIZE: 705 POINTS
TCL: Setting parameter alchLambda2 to 0.049999999999999684
Info: NONBONDED TABLE R-SQUARED SPACING: 0.0625
Info: NONBONDED TABLE SIZE: 705 POINTS
TCL: Running for 1500000 steps
ETITLE: TS BOND ANGLE DIHED IMPRP ELECT VDW BOUNDARY MISC KINETIC TOTAL TEMP POTENTIAL TOTALAVG TEMPAVG PRESSURE GPRESSURE VOLUME PRESSAVG GPRESSAVG
ENERGY: 0 7.9240 15.4212 3.5974 0.0000 -11159.7149 1443.3489 0.0000 0.0000 1706.4246 -7982.9988 289.5673 -9689.4234 -7982.9988 289.5673 -48.5927 34.0671 30250.6174 -48.5927 34.0671
ENERGY: 300000 5.6651 20.7250 4.6928 0.0000 -11096.7860 1431.1259 0.0000 0.0000 1790.1620 -7844.4153 303.7769 -9634.5772 -7915.2231 298.2570 -43.1686 40.0464 30037.6952 -34.6850 27.1529
ENERGY: 600000 9.9548 13.9179 6.1196 0.0000 -11187.5926 1473.9222 0.0000 0.0000 1778.0898 -7905.5883 301.7284 -9683.6781 -7904.9884 299.6563 82.8655 106.1907 30209.9179 108.1856 176.2905
ENERGY: 900000 10.2185 14.8829 5.4676 0.0000 -11072.2276 1432.3192 0.0000 0.0000 1781.6193 -7827.7201 302.3273 -9609.3394 -7900.9857 299.6697 350.7623 397.0537 30111.4928 49.4300 118.3623
ENERGY: 1200000 4.9857 12.9965 1.9696 0.0000 -10976.0637 1331.0128 0.0000 0.0000 1774.2386 -7850.8605 301.0749 -9625.0991 -7892.2761 300.0019 -978.1141 -875.2024 30473.5581 -52.8046 16.3274
ENERGY: 1500000 7.2060 17.1917 3.9703 0.0000 -11203.5501 1452.1874 0.0000 0.0000 1762.5578 -7960.4369 299.0927 -9722.9947 -7896.7616 300.0453 -79.5387 5.3200 30021.9449 -10.4359 57.0086
TCL: Running FEP window  20: Lambda1 0.049999999999999684 Lambda2 0.0    [dLambda -0.049999999999999684]
TCL: Setting parameter firsttimestep to 0
TCL: Setting parameter alchLambda to 0.049999999999999684
Info: NONBONDED TABLE R-SQUARED SPACING: 0.0625
Info: NONBONDED TABLE SIZE: 705 POINTS
TCL: Setting parameter alchLambda2 to 0.0
Info: NONBONDED TABLE R-SQUARED SPACING: 0.0625
Info: NONBONDED TABLE SIZE: 705 POINTS
TCL: Running for 1500000 steps
ETITLE: TS BOND ANGLE DIHED IMPRP ELECT VDW BOUNDARY MISC KINETIC TOTAL TEMP POTENTIAL TOTALAVG TEMPAVG PRESSURE GPRESSURE VOLUME PRESSAVG GPRESSAVG
ENERGY: 0 7.2060 17.1917 3.9703 0.0000 -11203.5502 1452.5142 0.0000 0.0000 1761.6956 -7960.9724 298.9464 -9722.6680 -7960.9724 298.9464 -86.9525 1.6006 30021.9449 -86.9525 1.6006
ENERGY: 300000 4.9438 17.4108 4.7579 0.0000 -11104.8976 1428.6177 0.0000 0.0000 1753.9929 -7895.1745 297.6393 -9649.1674 -7898.1931 300.3828 -266.2904 -251.0890 30748.0142 -275.7121 -237.5197
ENERGY: 600000 5.5932 17.9225 4.0561 0.0000 -11150.8031 1423.8472 0.0000 0.0000 1862.1348 -7837.2492 315.9902 -9699.3840 -7874.2586 302.0737 -245.9663 -206.6125 30363.6460 -422.5837 -380.5073
ENERGY: 900000 6.5792 13.3435 5.1905 0.0000 -11136.8558 1442.5426 0.0000 0.0000 1738.7438 -7930.4563 295.0516 -9669.2000 -7873.3738 303.1077 -271.6557 -175.9862 30193.3338 -398.5716 -348.7691
ENERGY: 1200000 5.5488 15.4557 4.5005 0.0000 -10978.6233 1314.8351 0.0000 0.0000 1722.9233 -7915.3598 292.3670 -9638.2831 -7877.2905 301.2907 -1137.1422 -1051.6144 30347.4349 -466.8108 -407.0846
ENERGY: 1500000 11.6457 11.6293 2.7127 0.0000 -11306.9115 1588.6750 0.0000 0.0000 1729.5147 -7962.7341 293.4856 -9692.2488 -7880.2781 301.1939 918.3751 1052.3288 30076.3111 -314.3815 -248.5164
TCL: Exiting due to exit command.
