Info: SIMULATION PARAMETERS:
Info: TIMESTEP               2
Info: NUMBER OF STEPS        0
Info: STEPS PER CYCLE        10
Info: PERIODIC CELL BASIS 1  33.1671 0 0
Info: PERIODIC CELL BASIS 2  0 28.4917 0
Info: PERIODIC CELL BASIS 3  0 0 32.072
Info: PERIODIC CELL CENTER   0 0 0
Info: WRAPPING WATERS AROUND PERIODIC BOUNDARIES ON OUTPUT.
Info: WRAPPING ALL CLUSTERS AROUND PERIODIC BOUNDARIES ON OUTPUT.
Info: FIRST LDB TIMESTEP     50
Info: LAST LDB TIMESTEP     -1
Info: HOM BACKGROUND SCALING 1
Info: PME BACKGROUND SCALING 1
Info: MIN ATOMS PER PATCH    40
Info: EMPTY PATCH LOAD       40 ATOMS
Info: VELOCITY FILE          mobley_4934872_equil.vel
Info: CENTER OF MASS MOVING INITIALLY? NO
Info: DIELECTRIC             1
Info: EXCLUDE                SCALED ONE-FOUR
Info: 1-4 ELECTROSTATICS SCALED BY 0.833333
Info: MODIFIED 1-4 VDW PARAMETERS WILL BE USED
Info: DCD FILENAME           mobley_4934872_prod.dcd
Info: DCD FREQUENCY          100000
Info: DCD FIRST STEP         100000
Info: DCD FILE WILL CONTAIN UNIT CELL DATA
Info: XST FILENAME           mobley_4934872_prod.xst
Info: XST FREQUENCY          100000
Info: NO VELOCITY DCD OUTPUT
Info: NO FORCE DCD OUTPUT
Info: OUTPUT FILENAME        mobley_4934872_prod
Info: BINARY OUTPUT FILES WILL BE USED
Info: RESTART FILENAME       mobley_4934872_prod.restart
Info: RESTART FREQUENCY      100000
Info: BINARY RESTART FILES WILL BE USED
Info: CUTOFF                 9
Info: PAIRLIST DISTANCE      11
Info: PAIRLIST SHRINK RATE   0.01
Info: PAIRLIST GROW RATE     0.01
Info: PAIRLIST TRIGGER       0.3
Info: PAIRLISTS PER CYCLE    2
Info: PAIRLISTS ENABLED
Info: MARGIN                 2
Info: HYDROGEN GROUP CUTOFF  2.5
Info: PATCH DIMENSION        15.5
Info: ENERGY OUTPUT STEPS    100000
Info: ENERGY EVALUATION STEPS    100000
Info: OUTPUT ENERGY PRECISION 4
Info: CROSSTERM ENERGY INCLUDED IN DIHEDRAL
Info: TIMING OUTPUT STEPS    1000000
Info: PRESSURE OUTPUT STEPS  100000
Info: ALCHEMICAL FEP ON
Info: FEP CURRENT LAMBDA VALUE     0
Info: FEP COMPARISON LAMBDA VALUE  0.05
Info: FEP INTRA-ALCHEMICAL NON-BONDED INTERACTIONS WILL BE RETAINED
Info: FEP INTRA-ALCHEMICAL BONDED INTERACTIONS WILL BE RETAINED
Info: FEP VDW SHIFTING COEFFICIENT 5
Info: FEP ELEC. ACTIVE FOR ANNIHILATED PARTICLES BETWEEN LAMBDA = 0 AND LAMBDA = 0.5
Info: FEP ELEC. ACTIVE FOR EXNIHILATED PARTICLES BETWEEN LAMBDA = 0.5 AND LAMBDA = 1
Info: FEP VDW ACTIVE FOR ANNIHILATED PARTICLES BETWEEN LAMBDA = 0 AND LAMBDA = 1
Info: FEP VDW ACTIVE FOR EXNIHILATED PARTICLES BETWEEN LAMBDA = 0 AND LAMBDA = 1
Info: FEP BOND ACTIVE FOR ANNIHILATED PARTICLES BETWEEN LAMBDA = 1 AND LAMBDA = 1
Info: FEP BOND ACTIVE FOR EXNIHILATED PARTICLES BETWEEN LAMBDA = 0 AND LAMBDA = 0
Info: LANGEVIN DYNAMICS ACTIVE
Info: LANGEVIN TEMPERATURE   300
Info: LANGEVIN USING BBK INTEGRATOR
Info: LANGEVIN DAMPING COEFFICIENT IS 1 INVERSE PS
Info: LANGEVIN DYNAMICS APPLIED TO HYDROGENS
Info: LANGEVIN PISTON PRESSURE CONTROL ACTIVE
Info:        TARGET PRESSURE IS 1.01325 BAR
Info:     OSCILLATION PERIOD IS 50 FS
Info:             DECAY TIME IS 25 FS
Info:     PISTON TEMPERATURE IS 300 K
Info:       PRESSURE CONTROL IS GROUP-BASED
Info:    INITIAL STRAIN RATE IS -0.000217185 -0.000217185 -0.000217185
Info:       CELL FLUCTUATION IS ISOTROPIC
Info: PARTICLE MESH EWALD (PME) ACTIVE
Info: PME TOLERANCE               1e-06
Info: PME EWALD COEFFICIENT       0.348832
Info: PME INTERPOLATION ORDER     4
Info: PME GRID DIMENSIONS         36 32 36
Info: PME MAXIMUM GRID SPACING    1
Info: PME CALCULATION WILL BE PERFORMED ON GPU
Info: FULL ELECTROSTATIC EVALUATION FREQUENCY      2
Info: USING VERLET I (r-RESPA) MTS SCHEME.
Info: C1 SPLITTING OF LONG RANGE ELECTROSTATICS
Info: PLACING ATOMS IN PATCHES BY HYDROGEN GROUPS
Info: RIGID BONDS TO HYDROGEN : ALL
Info:         ERROR TOLERANCE : 1e-08
Info:          MAX ITERATIONS : 100
Info: RIGID WATER USING SETTLE ALGORITHM
Info: RANDOM NUMBER SEED     1744073268
Info: USE HYDROGEN BONDS?    NO
Info: Using AMBER format force field!
Info: AMBER PARM FILE        mobley_4934872.prmtop
Info: COORDINATE PDB         mobley_4934872.pdb
Info: Exclusions will be read from PARM file!
Info: SCNB (VDW SCALING)     2
Info: USING ARITHMETIC MEAN TO COMBINE L-J SIGMA PARAMETERS
Info: BINARY COORDINATES     mobley_4934872_equil.coor
Info: SUMMARY OF PARAMETERS:
Info: 10 BONDS
Info: 13 ANGLES
Info:   13 HARMONIC
Info:   0 COSINE-BASED
Info: 12 DIHEDRAL
Info: 0 IMPROPER
Info: 0 CROSSTERM
Info: 0 VDW
Info: 45 VDW_PAIRS
Info: 0 NBTHOLE_PAIRS
Info: To read alchdata from file: mobley_4934872.pdb
Info: To read alchflag data from column: 5
Info: STRUCTURE SUMMARY:
Info: 2934 ATOMS
Info: 2934 BONDS
Info: 51 ANGLES
Info: 81 DIHEDRALS
Info: 0 IMPROPERS
Info: 0 CROSSTERMS
Info: 3041 EXCLUSIONS
Info: 2920 RIGID BONDS
Info: ALCH: 0 ATOMS TO DISAPPEAR IN FINAL STATE
Info: ALCH: 30 ATOMS TO APPEAR IN FINAL STATE
Info: 5882 DEGREES OF FREEDOM
Info: 982 HYDROGEN GROUPS
Info: 4 ATOMS IN LARGEST HYDROGEN GROUP
Info: 982 MIGRATION GROUPS
Info: 4 ATOMS IN LARGEST MIGRATION GROUP
Info: TOTAL MASS = 17635.7 amu
Info: TOTAL CHARGE = -0.000199988 e
Info: MASS DENSITY = 0.966278 g/cm^3
Info: ATOM DENSITY = 0.0968076 atoms/A^3
Info: ADDED 0 IMPLICIT EXCLUSIONS
Info: NONBONDED TABLE R-SQUARED SPACING: 0.0625
Info: NONBONDED TABLE SIZE: 705 POINTS
Info: REMOVING COM VELOCITY -0.178533 0.0936597 0.141615
Info: Use 3D box decompostion in PME FFT.
Info: Updated CUDA force table with 4096 elements.
Info: Updated CUDA LJ table with 9 x 9 elements.
Info: Found 29 unique exclusion lists needing 116 bytes
TCL: Running for 1500000 steps
ETITLE: TS BOND ANGLE DIHED IMPRP ELECT VDW BOUNDARY MISC KINETIC TOTAL TEMP POTENTIAL TOTALAVG TEMPAVG PRESSURE GPRESSURE VOLUME PRESSAVG GPRESSAVG
ENERGY: 0 3.5618 9.9573 14.8682 0.0000 -10563.5513 1412.5850 0.0000 0.0000 1764.5374 -7358.0416 301.9230 -9122.5790 -7358.0416 301.9230 -190.4347 -100.4454 30307.5380 -190.4347 -100.4454
ENERGY: 300000 7.5702 15.1329 14.9146 0.0000 -10547.0180 1348.2960 0.0000 0.0000 1725.0420 -7436.0623 295.1651 -9161.1042 -7369.7341 301.7939 -796.2160 -734.1211 30059.5910 206.7231 295.6573
ENERGY: 600000 3.2332 14.3592 15.8220 0.0000 -10609.3150 1460.8571 0.0000 0.0000 1761.4530 -7353.5906 301.3953 -9115.0435 -7369.3111 302.8321 477.2128 568.1318 29866.3418 127.5487 199.4974
ENERGY: 900000 3.6966 14.0297 14.5548 0.0000 -10480.5515 1281.4872 0.0000 0.0000 1784.9902 -7381.7930 305.4226 -9166.7832 -7377.5902 301.9811 -1064.4509 -985.7235 29768.1338 -45.7198 29.9835
ENERGY: 1200000 4.5481 13.5566 19.7898 0.0000 -10809.9162 1536.4199 0.0000 0.0000 1750.4380 -7485.1638 299.5105 -9235.6018 -7380.7381 302.2414 772.5316 820.7761 29479.9055 -85.4681 -11.5487
ENERGY: 1500000 4.2557 11.0282 14.6160 0.0000 -10634.8348 1455.7982 0.0000 0.0000 1766.0749 -7383.0617 302.1861 -9149.1366 -7385.2170 301.2516 -194.3542 -149.7125 30264.7399 -134.3200 -63.3934
TCL: Running FEP window   2: Lambda1 0.05   Lambda2 0.1    [dLambda 0.05  ]
TCL: Setting parameter firsttimestep to 0
TCL: Setting parameter alchLambda to 0.05
Info: NONBONDED TABLE R-SQUARED SPACING: 0.0625
Info: NONBONDED TABLE SIZE: 705 POINTS
TCL: Setting parameter alchLambda2 to 0.1
Info: NONBONDED TABLE R-SQUARED SPACING: 0.0625
Info: NONBONDED TABLE SIZE: 705 POINTS
TCL: Running for 1500000 steps
ETITLE: TS BOND ANGLE DIHED IMPRP ELECT VDW BOUNDARY MISC KINETIC TOTAL TEMP POTENTIAL TOTALAVG TEMPAVG PRESSURE GPRESSURE VOLUME PRESSAVG GPRESSAVG
ENERGY: 0 4.2557 11.0282 14.6160 0.0000 -10634.8348 1461.1870 0.0000 0.0000 1765.2206 -7378.5273 302.0399 -9143.7479 -7378.5273 302.0399 -218.0224 -134.3799 30264.7399 -218.0224 -134.3799
ENERGY: 300000 3.5476 13.9902 14.2430 0.0000 -10471.4833 1382.4362 0.0000 0.0000 1696.3163 -7360.9500 290.2500 -9057.2663 -7382.3412 298.3631 -374.3780 -296.7442 30508.2104 -114.9979 -54.7778
ENERGY: 600000 3.6826 11.2896 20.0548 0.0000 -10471.1953 1289.8639 0.0000 0.0000 1764.9385 -7381.3658 301.9917 -9146.3043 -7387.1112 299.3447 -989.3598 -939.4151 29856.9029 -231.0824 -169.8771
ENERGY: 900000 3.9499 11.7193 16.6152 0.0000 -10581.3810 1432.5929 0.0000 0.0000 1674.5726 -7441.9311 286.5295 -9116.5037 -7399.9711 298.2484 -469.0564 -333.3491 30743.2968 -227.3717 -148.0687
ENERGY: 1200000 5.4648 15.8426 12.4703 0.0000 -10519.4279 1397.4207 0.0000 0.0000 1752.5481 -7335.6813 299.8716 -9088.2295 -7389.0032 298.6231 -528.0987 -431.7551 30272.4976 -125.7776 -46.8088
ENERGY: 1500000 3.0324 11.6992 15.3897 0.0000 -10744.8771 1522.7468 0.0000 0.0000 1773.5119 -7418.4972 303.4586 -9192.0091 -7391.8192 299.4257 615.4326 680.5609 30133.7947 -11.2649 67.8529
TCL: Running FEP window   3: Lambda1 0.1    Lambda2 0.15000000000000002 [dLambda 0.05000000000000002]
TCL: Setting parameter firsttimestep to 0
TCL: Setting parameter alchLambda to 0.1
Info: NONBONDED TABLE R-SQUARED SPACING: 0.0625
Info: NONBONDED TABLE SIZE: 705 POINTS
TCL: Setting parameter alchLambda2 to 0.15000000000000002
Info: NONBONDED TABLE R-SQUARED SPACING: 0.0625
Info: NONBONDED TABLE SIZE: 705 POINTS
TCL: Running for 1500000 steps
ETITLE: TS BOND ANGLE DIHED IMPRP ELECT VDW BOUNDARY MISC KINETIC TOTAL TEMP POTENTIAL TOTALAVG TEMPAVG PRESSURE GPRESSURE VOLUME PRESSAVG GPRESSAVG
ENERGY: 0 3.0324 11.6992 15.3897 0.0000 -10744.8764 1526.6400 0.0000 0.0000 1772.6278 -7415.4874 303.3073 -9188.1151 -7415.4874 303.3073 632.8875 691.8570 30133.7947 632.8875 691.8570
ENERGY: 300000 5.2590 13.5342 13.5885 0.0000 -10652.8067 1502.0129 0.0000 0.0000 1833.8610 -7284.5511 313.7847 -9118.4121 -7380.8306 303.1575 381.2461 465.9489 30267.4218 126.2424 203.7354
ENERGY: 600000 4.9722 10.1519 18.4998 0.0000 -10586.2805 1405.1997 0.0000 0.0000 1779.4054 -7368.0516 304.4670 -9147.4570 -7386.5775 302.9543 18.4425 38.5290 29542.0719 2.4248 46.0720
ENERGY: 900000 4.3984 12.6488 14.0300 0.0000 -10502.8497 1402.3859 0.0000 0.0000 1830.4429 -7238.9437 313.1999 -9069.3866 -7357.2508 304.1151 -25.0214 51.0981 29929.8893 -181.0822 -134.5610
ENERGY: 1200000 3.2940 10.1210 12.0198 0.0000 -10505.9901 1371.8617 0.0000 0.0000 1728.3417 -7380.3520 295.7297 -9108.6937 -7354.5861 303.0481 -408.4368 -324.0225 29800.7841 -195.7923 -142.4879
ENERGY: 1500000 5.4565 10.5530 18.0573 0.0000 -10536.2005 1364.6143 0.0000 0.0000 1755.2050 -7382.3144 300.3262 -9137.5193 -7360.1918 301.9479 -625.1829 -530.1896 30270.7792 -199.7158 -145.5680
TCL: Running FEP window   4: Lambda1 0.15000000000000002 Lambda2 0.2    [dLambda 0.04999999999999999]
TCL: Setting parameter firsttimestep to 0
TCL: Setting parameter alchLambda to 0.15000000000000002
Info: NONBONDED TABLE R-SQUARED SPACING: 0.0625
Info: NONBONDED TABLE SIZE: 705 POINTS
TCL: Setting parameter alchLambda2 to 0.2
Info: NONBONDED TABLE R-SQUARED SPACING: 0.0625
Info: NONBONDED TABLE SIZE: 705 POINTS
TCL: Running for 1500000 steps
ETITLE: TS BOND ANGLE DIHED IMPRP ELECT VDW BOUNDARY MISC KINETIC TOTAL TEMP POTENTIAL TOTALAVG TEMPAVG PRESSURE GPRESSURE VOLUME PRESSAVG GPRESSAVG
ENERGY: 0 5.4565 10.5530 18.0573 0.0000 -10536.1999 1365.8784 0.0000 0.0000 1754.3784 -7381.8764 300.1848 -9136.2547 -7381.8764 300.1848 -610.4659 -521.4422 30270.7792 -610.4659 -521.4422
ENERGY: 300000 1.8592 15.0107 17.0354 0.0000 -10681.1757 1456.3302 0.0000 0.0000 1746.5266 -7444.4135 298.8413 -9190.9401 -7378.1461 300.0017 364.2253 448.1497 29452.1067 -146.4984 -61.8193
ENERGY: 600000 5.9490 8.2938 19.1406 0.0000 -10514.6592 1384.7859 0.0000 0.0000 1701.1946 -7395.2953 291.0847 -9096.4899 -7357.7719 298.9206 -599.6577 -516.4481 30108.2499 -236.1805 -168.3496
ENERGY: 900000 6.1446 7.8596 19.1794 0.0000 -10521.7913 1441.1820 0.0000 0.0000 1721.4996 -7325.9261 294.5590 -9047.4258 -7351.3340 298.9004 694.3740 728.7108 29945.7839 -167.4356 -93.8036
ENERGY: 1200000 2.6879 8.8965 18.0781 0.0000 -10683.4642 1453.0653 0.0000 0.0000 1733.8516 -7466.8849 296.6725 -9200.7364 -7354.4580 299.1640 -60.0757 -14.3602 30045.0174 -108.1346 -44.8286
ENERGY: 1500000 5.3031 15.9702 17.5001 0.0000 -10775.3140 1465.2236 0.0000 0.0000 1788.0084 -7483.3087 305.9390 -9271.3171 -7360.8619 301.0793 43.4885 109.1660 29526.6023 -101.8181 -45.0092
TCL: Running FEP window   5: Lambda1 0.2    Lambda2 0.25   [dLambda 0.04999999999999999]
TCL: Setting parameter firsttimestep to 0
TCL: Setting parameter alchLambda to 0.2
Info: NONBONDED TABLE R-SQUARED SPACING: 0.0625
Info: NONBONDED TABLE SIZE: 705 POINTS
TCL: Setting parameter alchLambda2 to 0.25
Info: NONBONDED TABLE R-SQUARED SPACING: 0.0625
Info: NONBONDED TABLE SIZE: 705 POINTS
TCL: Running for 1500000 steps
ETITLE: TS BOND ANGLE DIHED IMPRP ELECT VDW BOUNDARY MISC KINETIC TOTAL TEMP POTENTIAL TOTALAVG TEMPAVG PRESSURE GPRESSURE VOLUME PRESSAVG GPRESSAVG
ENERGY: 0 5.3031 15.9702 17.5001 0.0000 -10775.3134 1466.9694 0.0000 0.0000 1787.1343 -7482.4364 305.7895 -9269.5707 -7482.4364 305.7895 51.8955 122.6048 29526.6023 51.8955 122.6048
ENERGY: 300000 3.5444 10.7826 12.1154 0.0000 -10472.0010 1367.2277 0.0000 0.0000 1756.1415 -7322.1894 300.4864 -9078.3309 -7408.6183 299.9341 -53.6057 70.9633 29755.5180 -122.0701 -60.1154
ENERGY: 600000 6.3781 11.3622 14.1630 0.0000 -10544.9623 1407.2322 0.0000 0.0000 1717.9868 -7387.8399 293.9579 -9105.8267 -7403.5619 298.3648 -200.9017 -121.2103 30369.8279 -1.2682 74.7584
ENERGY: 900000 4.1486 13.8496 13.1605 0.0000 -10598.3767 1353.7899 0.0000 0.0000 1740.2161 -7473.2120 297.7615 -9213.4281 -7408.2209 298.5228 -721.7590 -672.4561 29804.2926 -31.5188 35.6408
ENERGY: 1200000 3.1190 11.9104 14.5600 0.0000 -10690.5228 1467.6232 0.0000 0.0000 1754.8249 -7438.4852 300.2612 -9193.3102 -7405.0547 299.5574 466.6740 560.3098 29294.8647 9.4979 74.4918
ENERGY: 1500000 3.1425 14.0787 13.0421 0.0000 -10544.4727 1358.2679 0.0000 0.0000 1759.7356 -7396.2059 301.1014 -9155.9415 -7400.1326 300.0319 -562.1422 -486.5502 30048.0082 -34.9961 31.3955
TCL: Running FEP window   6: Lambda1 0.25   Lambda2 0.3    [dLambda 0.04999999999999999]
TCL: Setting parameter firsttimestep to 0
TCL: Setting parameter alchLambda to 0.25
Info: NONBONDED TABLE R-SQUARED SPACING: 0.0625
Info: NONBONDED TABLE SIZE: 705 POINTS
TCL: Setting parameter alchLambda2 to 0.3
Info: NONBONDED TABLE R-SQUARED SPACING: 0.0625
Info: NONBONDED TABLE SIZE: 705 POINTS
TCL: Running for 1500000 steps
ETITLE: TS BOND ANGLE DIHED IMPRP ELECT VDW BOUNDARY MISC KINETIC TOTAL TEMP POTENTIAL TOTALAVG TEMPAVG PRESSURE GPRESSURE VOLUME PRESSAVG GPRESSAVG
ENERGY: 0 3.1425 14.0787 13.0421 0.0000 -10544.4705 1357.7913 0.0000 0.0000 1758.8876 -7397.5283 300.9563 -9156.4159 -7397.5283 300.9563 -575.0401 -484.7756 30048.0082 -575.0401 -484.7756
ENERGY: 300000 2.9224 12.3573 14.3927 0.0000 -10596.7041 1460.1445 0.0000 0.0000 1714.3365 -7392.5506 293.3334 -9106.8871 -7379.8262 297.8615 254.9326 220.4714 30256.9044 153.8240 176.5509
ENERGY: 600000 3.9409 8.1399 15.4306 0.0000 -10632.5458 1461.1636 0.0000 0.0000 1778.9866 -7364.8842 304.3954 -9143.8708 -7380.6795 299.8546 174.6052 218.4025 30324.5497 35.2012 80.4006
ENERGY: 900000 3.3917 12.7006 17.8521 0.0000 -10599.0033 1392.5829 0.0000 0.0000 1731.4514 -7441.0247 296.2618 -9172.4761 -7392.8784 299.4275 -287.9254 -281.4794 30129.3521 -51.4731 -3.6080
ENERGY: 1200000 5.2389 17.4206 20.2493 0.0000 -10475.6467 1282.9812 0.0000 0.0000 1749.5014 -7400.2554 299.3503 -9149.7568 -7391.4278 299.4055 -1190.7732 -1120.4173 30001.9385 -162.9455 -111.9878
ENERGY: 1500000 4.0279 14.1983 20.0938 0.0000 -10511.8283 1382.7881 0.0000 0.0000 1797.6382 -7293.0820 307.5868 -9090.7202 -7380.8109 300.4965 -114.0309 -69.3541 30029.8345 -146.0934 -85.6773
TCL: Running FEP window   7: Lambda1 0.3    Lambda2 0.35   [dLambda 0.04999999999999999]
TCL: Setting parameter firsttimestep to 0
TCL: Setting parameter alchLambda to 0.3
Info: NONBONDED TABLE R-SQUARED SPACING: 0.0625
Info: NONBONDED TABLE SIZE: 705 POINTS
TCL: Setting parameter alchLambda2 to 0.35
Info: NONBONDED TABLE R-SQUARED SPACING: 0.0625
Info: NONBONDED TABLE SIZE: 705 POINTS
TCL: Running for 1500000 steps
ETITLE: TS BOND ANGLE DIHED IMPRP ELECT VDW BOUNDARY MISC KINETIC TOTAL TEMP POTENTIAL TOTALAVG TEMPAVG PRESSURE GPRESSURE VOLUME PRESSAVG GPRESSAVG
ENERGY: 0 4.0279 14.1983 20.0938 0.0000 -10511.8290 1383.1500 0.0000 0.0000 1796.7701 -7293.5889 307.4382 -9090.3590 -7293.5889 307.4382 -141.0636 -57.5945 30029.8345 -141.0636 -57.5945
ENERGY: 300000 6.1369 13.4360 15.6075 0.0000 -10506.2331 1356.8166 0.0000 0.0000 1761.9640 -7352.2720 301.4827 -9114.2360 -7370.3678 298.2057 -488.4670 -458.1191 30383.6415 -322.5181 -260.4484
ENERGY: 600000 8.4975 10.9802 13.8678 0.0000 -10496.9064 1366.3497 0.0000 0.0000 1698.8161 -7398.3951 290.6777 -9097.2112 -7357.9401 299.7457 -451.8921 -339.6333 30093.9489 -339.6230 -268.1015
ENERGY: 900000 6.6797 12.8451 19.6008 0.0000 -10698.6340 1494.1440 0.0000 0.0000 1779.0487 -7386.3158 304.4060 -9165.3645 -7364.6710 301.1065 500.2229 573.9058 30125.6171 -64.0127 10.7259
ENERGY: 1200000 4.4058 10.9628 14.4665 0.0000 -10639.0844 1447.5645 0.0000 0.0000 1783.3533 -7378.3314 305.1425 -9161.6848 -7373.0734 300.7135 -78.6047 -19.3135 30244.8471 -130.0246 -57.6533
ENERGY: 1500000 5.4909 9.1469 12.1913 0.0000 -10762.0477 1510.7225 0.0000 0.0000 1812.2687 -7412.2275 310.0901 -9224.4962 -7379.3628 301.3215 557.8407 632.3471 29785.5752 -38.4799 31.5458
TCL: Running FEP window   8: Lambda1 0.35   Lambda2 0.39999999999999997 [dLambda 0.04999999999999999]
TCL: Setting parameter firsttimestep to 0
TCL: Setting parameter alchLambda to 0.35
Info: NONBONDED TABLE R-SQUARED SPACING: 0.0625
Info: NONBONDED TABLE SIZE: 705 POINTS
TCL: Setting parameter alchLambda2 to 0.39999999999999997
Info: NONBONDED TABLE R-SQUARED SPACING: 0.0625
Info: NONBONDED TABLE SIZE: 705 POINTS
TCL: Running for 1500000 steps
ETITLE: TS BOND ANGLE DIHED IMPRP ELECT VDW BOUNDARY MISC KINETIC TOTAL TEMP POTENTIAL TOTALAVG TEMPAVG PRESSURE GPRESSURE VOLUME PRESSAVG GPRESSAVG
ENERGY: 0 5.4909 9.1469 12.1913 0.0000 -10762.0474 1510.8830 0.0000 0.0000 1811.4249 -7412.9105 309.9458 -9224.3354 -7412.9105 309.9458 552.1487 639.4452 29785.5752 552.1487 639.4452
ENERGY: 300000 3.8633 10.0397 13.2054 0.0000 -10602.1888 1406.8887 0.0000 0.0000 1741.2262 -7426.9655 297.9343 -9168.1917 -7387.4332 302.8813 -197.2058 -135.4712 30056.7472 173.5223 238.1843
ENERGY: 600000 3.1915 9.5617 20.4643 0.0000 -10546.5742 1487.2826 0.0000 0.0000 1764.7554 -7261.3188 301.9603 -9026.0741 -7380.0721 302.0574 839.9614 855.6978 30016.5830 117.2963 187.7832
ENERGY: 900000 5.5524 15.2176 16.6239 0.0000 -10668.9616 1466.4173 0.0000 0.0000 1767.3627 -7397.7877 302.4065 -9165.1504 -7386.0994 302.1452 343.1735 408.9148 29734.1031 106.0391 161.8838
ENERGY: 1200000 6.0335 13.3421 14.3560 0.0000 -10717.2748 1451.0044 0.0000 0.0000 1719.3727 -7513.1661 294.1951 -9232.5389 -7392.1791 301.1582 -465.9696 -380.5731 30599.0409 -49.7532 4.5304
ENERGY: 1500000 4.8702 14.4521 14.2993 0.0000 -10550.5819 1405.9306 0.0000 0.0000 1734.9323 -7376.0974 296.8574 -9111.0297 -7391.0510 301.1077 -85.7452 -37.8014 29951.3767 -14.6535 41.7192
TCL: Running FEP window   9: Lambda1 0.39999999999999997 Lambda2 0.44999999999999996 [dLambda 0.04999999999999999]
TCL: Setting parameter firsttimestep to 0
TCL: Setting parameter alchLambda to 0.39999999999999997
Info: NONBONDED TABLE R-SQUARED SPACING: 0.0625
Info: NONBONDED TABLE SIZE: 705 POINTS
TCL: Setting parameter alchLambda2 to 0.44999999999999996
Info: NONBONDED TABLE R-SQUARED SPACING: 0.0625
Info: NONBONDED TABLE SIZE: 705 POINTS
TCL: Running for 1500000 steps
ETITLE: TS BOND ANGLE DIHED IMPRP ELECT VDW BOUNDARY MISC KINETIC TOTAL TEMP POTENTIAL TOTALAVG TEMPAVG PRESSURE GPRESSURE VOLUME PRESSAVG GPRESSAVG
ENERGY: 0 4.8702 14.4521 14.2993 0.0000 -10550.5816 1405.9988 0.0000 0.0000 1734.0644 -7376.8968 296.7089 -9110.9612 -7376.8968 296.7089 -98.6231 -29.0363 29951.3767 -98.6231 -29.0363
ENERGY: 300000 3.6478 15.4697 14.0095 0.0000 -10561.6682 1348.4653 0.0000 0.0000 1790.5980 -7389.4779 306.3822 -9180.0759 -7383.1355 302.1051 -684.4511 -607.3134 30055.8950 -166.7615 -118.8434
ENERGY: 600000 5.1252 10.7136 15.7949 0.0000 -10593.1745 1421.4256 0.0000 0.0000 1770.5355 -7369.5797 302.9493 -9140.1153 -7388.9337 301.2970 -88.3505 -25.3942 30201.9248 -109.9487 -52.4179
ENERGY: 900000 8.6082 18.3552 14.2629 0.0000 -10692.7618 1474.5836 0.0000 0.0000 1801.0984 -7375.8535 308.1788 -9176.9520 -7367.8811 302.9899 526.8874 536.4741 29908.7966 -56.3690 -9.0308
ENERGY: 1200000 2.3780 8.2585 13.2711 0.0000 -10653.8269 1457.7523 0.0000 0.0000 1715.7584 -7456.4087 293.5766 -9172.1670 -7381.8373 302.1232 375.2291 394.6299 29993.9355 44.8609 93.2934
ENERGY: 1500000 7.3670 9.9586 13.4622 0.0000 -10641.7240 1395.1851 0.0000 0.0000 1747.5768 -7468.1742 299.0210 -9215.7510 -7385.7113 301.9703 -413.3031 -315.4172 30254.4557 27.9532 81.6096
TCL: Running FEP window  10: Lambda1 0.44999999999999996 Lambda2 0.49999999999999994 [dLambda 0.04999999999999999]
TCL: Setting parameter firsttimestep to 0
TCL: Setting parameter alchLambda to 0.44999999999999996
Info: NONBONDED TABLE R-SQUARED SPACING: 0.0625
Info: NONBONDED TABLE SIZE: 705 POINTS
TCL: Setting parameter alchLambda2 to 0.49999999999999994
Info: NONBONDED TABLE R-SQUARED SPACING: 0.0625
Info: NONBONDED TABLE SIZE: 705 POINTS
TCL: Running for 1500000 steps
ETITLE: TS BOND ANGLE DIHED IMPRP ELECT VDW BOUNDARY MISC KINETIC TOTAL TEMP POTENTIAL TOTALAVG TEMPAVG PRESSURE GPRESSURE VOLUME PRESSAVG GPRESSAVG
ENERGY: 0 7.3670 9.9586 13.4622 0.0000 -10641.7230 1395.4463 0.0000 0.0000 1746.7274 -7468.7615 298.8756 -9215.4888 -7468.7615 298.8756 -378.5083 -305.6084 30254.4557 -378.5083 -305.6084
ENERGY: 300000 2.5699 11.1059 14.7818 0.0000 -10487.6614 1410.0751 0.0000 0.0000 1737.0880 -7312.0406 297.2263 -9049.1287 -7368.3366 303.5193 -136.1920 -13.1030 30438.0198 -150.9186 -56.4930
ENERGY: 600000 5.9087 8.2801 16.9250 0.0000 -10490.7409 1372.5684 0.0000 0.0000 1777.7972 -7309.2615 304.1919 -9087.0587 -7334.2988 303.8084 -94.5314 -22.6852 29913.5875 -109.1907 -29.7917
ENERGY: 900000 5.6014 7.7477 13.6179 0.0000 -10616.7216 1452.7455 0.0000 0.0000 1803.4363 -7333.5729 308.5789 -9137.0091 -7344.1645 303.2388 519.1475 601.6108 29464.2770 -51.3012 22.4447
ENERGY: 1200000 5.8032 7.3376 15.4688 0.0000 -10636.1191 1449.5551 0.0000 0.0000 1744.3810 -7413.5733 298.4741 -9157.9543 -7348.9750 302.8520 335.6620 376.1458 29902.8135 -70.8262 -7.4776
ENERGY: 1500000 4.6908 11.6552 14.3933 0.0000 -10552.1295 1383.9249 0.0000 0.0000 1765.3903 -7372.0750 302.0690 -9137.4653 -7360.7070 301.7932 -492.4511 -373.3126 30745.5208 -136.6190 -65.2103
TCL: Running FEP window  11: Lambda1 0.49999999999999994 Lambda2 0.5499999999999999 [dLambda 0.04999999999999999]
TCL: Setting parameter firsttimestep to 0
TCL: Setting parameter alchLambda to 0.49999999999999994
Info: NONBONDED TABLE R-SQUARED SPACING: 0.0625
Info: NONBONDED TABLE SIZE: 705 POINTS
TCL: Setting parameter alchLambda2 to 0.5499999999999999
Info: NONBONDED TABLE R-SQUARED SPACING: 0.0625
Info: NONBONDED TABLE SIZE: 705 POINTS
TCL: Running for 1500000 steps
ETITLE: TS BOND ANGLE DIHED IMPRP ELECT VDW BOUNDARY MISC KINETIC TOTAL TEMP POTENTIAL TOTALAVG TEMPAVG PRESSURE GPRESSURE VOLUME PRESSAVG GPRESSAVG
ENERGY: 0 4.6908 11.6552 14.3933 0.0000 -10552.1302 1383.5906 0.0000 0.0000 1764.5664 -7373.2338 301.9280 -9137.8003 -7373.2338 301.9280 -460.6551 -369.5419 30745.5208 -460.6551 -369.5419
ENERGY: 300000 6.2999 12.4392 16.2129 0.0000 -10675.4599 1489.8484 0.0000 0.0000 1755.3927 -7395.2667 300.3583 -9150.6595 -7403.0192 298.0640 312.0089 362.2846 30083.4390 -127.6739 -43.9789
ENERGY: 600000 6.2085 18.3371 13.8877 0.0000 -10492.1490 1331.9821 0.0000 0.0000 1741.7184 -7380.0152 298.0185 -9121.7336 -7409.0852 299.7932 -833.7309 -808.2124 30314.6769 -300.7660 -236.3912
ENERGY: 900000 8.5732 13.5190 17.8913 0.0000 -10578.8317 1396.3615 0.0000 0.0000 1780.7493 -7361.7374 304.6970 -9142.4867 -7402.1691 301.3157 -41.2660 73.6579 29913.4543 -249.7563 -177.1694
ENERGY: 1200000 1.4220 11.6890 16.0427 0.0000 -10698.3004 1509.8399 0.0000 0.0000 1776.2578 -7383.0491 303.9285 -9159.3069 -7401.6297 301.1605 573.9368 693.8636 29923.4337 -202.9816 -137.9518
ENERGY: 1500000 2.9587 17.5295 15.5811 0.0000 -10350.7143 1297.6773 0.0000 0.0000 1719.8879 -7297.0798 294.2832 -9016.9677 -7389.4326 300.7529 -746.3827 -673.4617 30484.1537 -221.8893 -154.6420
TCL: Running FEP window  12: Lambda1 0.5499999999999999 Lambda2 0.6    [dLambda 0.050000000000000044]
TCL: Setting parameter firsttimestep to 0
TCL: Setting parameter alchLambda to 0.5499999999999999
Info: NONBONDED TABLE R-SQUARED SPACING: 0.0625
Info: NONBONDED TABLE SIZE: 705 POINTS
TCL: Setting parameter alchLambda2 to 0.6
Info: NONBONDED TABLE R-SQUARED SPACING: 0.0625
Info: NONBONDED TABLE SIZE: 705 POINTS
TCL: Running for 1500000 steps
ETITLE: TS BOND ANGLE DIHED IMPRP ELECT VDW BOUNDARY MISC KINETIC TOTAL TEMP POTENTIAL TOTALAVG TEMPAVG PRESSURE GPRESSURE VOLUME PRESSAVG GPRESSAVG
ENERGY: 0 2.9587 17.5295 15.5811 0.0000 -10351.6163 1297.8255 0.0000 0.0000 1718.9992 -7298.7222 294.1312 -9017.7214 -7298.7222 294.1312 -746.3358 -664.2873 30484.1537 -746.3358 -664.2873
ENERGY: 300000 6.1187 15.2921 15.1230 0.0000 -10618.2909 1431.9308 0.0000 0.0000 1752.4739 -7397.3524 299.8589 -9149.8263 -7365.6040 299.5036 214.0362 246.2338 30170.4971 -146.2641 -103.5120
ENERGY: 600000 7.5888 11.8728 17.7788 0.0000 -10563.4433 1428.1306 0.0000 0.0000 1758.7131 -7339.3592 300.9264 -9098.0723 -7385.2126 300.3923 -150.6980 -153.9847 30779.5237 -197.1935 -168.1351
ENERGY: 900000 5.3766 14.3514 13.3002 0.0000 -10488.6755 1326.4357 0.0000 0.0000 1726.0379 -7403.1737 295.3355 -9129.2116 -7380.5089 300.7665 -924.9377 -774.7235 30088.8408 -288.7425 -242.9473
ENERGY: 1200000 5.2298 14.3615 20.0936 0.0000 -10654.6155 1454.9673 0.0000 0.0000 1743.6287 -7416.3345 298.3454 -9159.9632 -7386.3978 301.2309 354.8597 453.2915 30050.3623 -171.9639 -119.9886
ENERGY: 1500000 6.3740 12.1834 13.6490 0.0000 -10563.5571 1377.0344 0.0000 0.0000 1751.5337 -7402.7826 299.6980 -9154.3163 -7385.8139 300.9820 -110.5636 -152.8013 29844.8275 -137.0200 -91.1727
TCL: Running FEP window  13: Lambda1 0.6    Lambda2 0.65   [dLambda 0.050000000000000044]
TCL: Setting parameter firsttimestep to 0
TCL: Setting parameter alchLambda to 0.6
Info: NONBONDED TABLE R-SQUARED SPACING: 0.0625
Info: NONBONDED TABLE SIZE: 705 POINTS
TCL: Setting parameter alchLambda2 to 0.65
Info: NONBONDED TABLE R-SQUARED SPACING: 0.0625
Info: NONBONDED TABLE SIZE: 705 POINTS
TCL: Running for 1500000 steps
ETITLE: TS BOND ANGLE DIHED IMPRP ELECT VDW BOUNDARY MISC KINETIC TOTAL TEMP POTENTIAL TOTALAVG TEMPAVG PRESSURE GPRESSURE VOLUME PRESSAVG GPRESSAVG
ENERGY: 0 6.3740 12.1834 13.6490 0.0000 -10563.6334 1376.8171 0.0000 0.0000 1750.6315 -7403.9784 299.5436 -9154.6099 -7403.9784 299.5436 -209.7932 -141.1259 29844.8275 -209.7932 -141.1259
ENERGY: 300000 4.0580 9.0028 15.8004 0.0000 -10585.0833 1446.6994 0.0000 0.0000 1738.3863 -7371.1364 297.4484 -9109.5227 -7401.5644 294.2086 201.1959 324.4548 30411.0142 262.4066 336.1340
ENERGY: 600000 7.1622 10.0582 13.8510 0.0000 -10484.0910 1300.4405 0.0000 0.0000 1721.6774 -7430.9018 294.5894 -9152.5792 -7402.3329 295.8808 -1365.6210 -1253.5194 30805.0920 -188.7754 -101.0775
ENERGY: 900000 5.1444 13.2333 15.3623 0.0000 -10698.5230 1508.1473 0.0000 0.0000 1778.0260 -7378.6097 304.2310 -9156.6357 -7397.3533 297.8215 605.0227 625.8148 30019.4614 -63.6830 18.8845
ENERGY: 1200000 4.1130 7.1213 15.5523 0.0000 -10533.9326 1344.4254 0.0000 0.0000 1742.0986 -7420.6219 298.0836 -9162.7205 -7389.5106 298.3311 -727.2793 -659.3804 30027.4272 -99.0600 -13.5146
ENERGY: 1500000 6.6058 14.1242 14.1442 0.0000 -10550.0647 1336.8276 0.0000 0.0000 1717.9256 -7460.4374 293.9475 -9178.3629 -7390.2490 298.6927 -1155.8001 -1163.6763 30905.7492 -87.9921 -17.9504
TCL: Running FEP window  14: Lambda1 0.65   Lambda2 0.7000000000000001 [dLambda 0.050000000000000044]
TCL: Setting parameter firsttimestep to 0
TCL: Setting parameter alchLambda to 0.65
Info: NONBONDED TABLE R-SQUARED SPACING: 0.0625
Info: NONBONDED TABLE SIZE: 705 POINTS
TCL: Setting parameter alchLambda2 to 0.7000000000000001
Info: NONBONDED TABLE R-SQUARED SPACING: 0.0625
Info: NONBONDED TABLE SIZE: 705 POINTS
TCL: Running for 1500000 steps
ETITLE: TS BOND ANGLE DIHED IMPRP ELECT VDW BOUNDARY MISC KINETIC TOTAL TEMP POTENTIAL TOTALAVG TEMPAVG PRESSURE GPRESSURE VOLUME PRESSAVG GPRESSAVG
ENERGY: 0 6.6058 14.1242 14.1442 0.0000 -10550.1854 1336.1810 0.0000 0.0000 1717.0201 -7462.1100 293.7925 -9179.1301 -7462.1100 293.7925 -1243.4241 -1157.8319 30905.7492 -1243.4241 -1157.8319
ENERGY: 300000 6.6204 12.5156 17.3186 0.0000 -10526.2093 1405.9470 0.0000 0.0000 1796.1540 -7287.6537 307.3328 -9083.8076 -7383.9048 298.4578 170.4715 261.3546 29910.4898 50.9727 122.0805
ENERGY: 600000 3.8850 14.8627 16.1209 0.0000 -10634.2083 1443.3422 0.0000 0.0000 1780.8591 -7375.1383 304.7158 -9155.9975 -7380.7047 299.2767 83.2102 168.4747 30100.1995 75.1506 141.3029
ENERGY: 900000 5.0281 13.6991 15.0324 0.0000 -10568.2793 1332.2529 0.0000 0.0000 1671.3419 -7530.9249 285.9767 -9202.2668 -7396.1181 298.1695 -1031.0442 -934.2532 30198.6645 -5.4974 60.7058
ENERGY: 1200000 3.2808 13.5578 11.9957 0.0000 -10641.3815 1450.8946 0.0000 0.0000 1708.9525 -7452.7001 292.4121 -9161.6526 -7403.5470 297.7975 289.5644 354.3445 30059.9982 -43.7244 24.7849
ENERGY: 1500000 4.0598 13.1466 13.4763 0.0000 -10504.9796 1332.1225 0.0000 0.0000 1765.5130 -7376.6615 302.0900 -9142.1745 -7402.2960 298.6559 -664.8009 -600.1060 30199.3628 -127.7258 -56.5213
TCL: Running FEP window  15: Lambda1 0.7000000000000001 Lambda2 0.7500000000000001 [dLambda 0.050000000000000044]
TCL: Setting parameter firsttimestep to 0
TCL: Setting parameter alchLambda to 0.7000000000000001
Info: NONBONDED TABLE R-SQUARED SPACING: 0.0625
Info: NONBONDED TABLE SIZE: 705 POINTS
TCL: Setting parameter alchLambda2 to 0.7500000000000001
Info: NONBONDED TABLE R-SQUARED SPACING: 0.0625
Info: NONBONDED TABLE SIZE: 705 POINTS
TCL: Running for 1500000 steps
ETITLE: TS BOND ANGLE DIHED IMPRP ELECT VDW BOUNDARY MISC KINETIC TOTAL TEMP POTENTIAL TOTALAVG TEMPAVG PRESSURE GPRESSURE VOLUME PRESSAVG GPRESSAVG
ENERGY: 0 4.0598 13.1466 13.4763 0.0000 -10505.4611 1332.3898 0.0000 0.0000 1764.6539 -7377.7347 301.9430 -9142.3886 -7377.7347 301.9430 -663.1460 -581.9285 30199.3628 -663.1460 -581.9285
ENERGY: 300000 3.3741 15.4879 15.9780 0.0000 -10573.3989 1390.7152 0.0000 0.0000 1661.2951 -7486.5485 284.2576 -9147.8436 -7416.3161 295.2726 -304.0486 -263.0866 29889.7686 -206.4572 -135.0836
ENERGY: 600000 7.3419 13.3212 15.4984 0.0000 -10651.9787 1407.5326 0.0000 0.0000 1720.9457 -7487.3390 294.4642 -9208.2846 -7420.7967 296.0226 -585.3758 -532.9552 30170.6626 -183.3433 -141.3529
ENERGY: 900000 6.8478 10.7424 16.5209 0.0000 -10552.1321 1341.6451 0.0000 0.0000 1691.7670 -7484.6089 289.4716 -9176.3759 -7417.1386 296.7642 -360.1464 -290.4422 29699.0196 -131.0749 -72.1920
ENERGY: 1200000 3.3253 13.1971 13.7050 0.0000 -10607.8061 1475.0793 0.0000 0.0000 1785.4027 -7317.0967 305.4932 -9102.4994 -7408.2465 298.0131 611.6883 680.2980 30132.9288 -152.4644 -95.1648
ENERGY: 1500000 10.5547 16.4087 13.1365 0.0000 -10423.4361 1280.0572 0.0000 0.0000 1788.5161 -7314.7628 306.0259 -9103.2790 -7406.0777 298.5704 -1069.8440 -1009.9164 30244.0466 -218.3877 -163.3446
TCL: Running FEP window  16: Lambda1 0.7500000000000001 Lambda2 0.8000000000000002 [dLambda 0.050000000000000044]
TCL: Setting parameter firsttimestep to 0
TCL: Setting parameter alchLambda to 0.7500000000000001
Info: NONBONDED TABLE R-SQUARED SPACING: 0.0625
Info: NONBONDED TABLE SIZE: 705 POINTS
TCL: Setting parameter alchLambda2 to 0.8000000000000002
Info: NONBONDED TABLE R-SQUARED SPACING: 0.0625
Info: NONBONDED TABLE SIZE: 705 POINTS
TCL: Running for 1500000 steps
ETITLE: TS BOND ANGLE DIHED IMPRP ELECT VDW BOUNDARY MISC KINETIC TOTAL TEMP POTENTIAL TOTALAVG TEMPAVG PRESSURE GPRESSURE VOLUME PRESSAVG GPRESSAVG
ENERGY: 0 10.5547 16.4087 13.1365 0.0000 -10425.6787 1281.6485 0.0000 0.0000 1787.6650 -7316.2653 305.8803 -9103.9304 -7316.2653 305.8803 -1063.1418 -983.0618 30244.0466 -1063.1418 -983.0618
ENERGY: 300000 4.7889 12.0255 14.5513 0.0000 -10553.6694 1419.6046 0.0000 0.0000 1695.7459 -7406.9533 290.1524 -9102.6992 -7364.4158 302.0155 46.1740 206.3189 30103.2137 -372.1775 -271.8783
ENERGY: 600000 5.3317 13.2018 15.4071 0.0000 -10423.1354 1326.4938 0.0000 0.0000 1763.3482 -7299.3528 301.7195 -9062.7010 -7353.4863 301.6494 -570.7047 -464.9917 30316.9410 -508.4935 -420.7073
ENERGY: 900000 3.3332 15.1823 16.5924 0.0000 -10536.9552 1339.5924 0.0000 0.0000 1723.3437 -7438.9113 294.8745 -9162.2549 -7371.1569 300.4372 -845.5180 -794.4584 30752.8038 -492.6730 -414.6782
ENERGY: 1200000 3.2392 17.6287 15.8628 0.0000 -10577.4832 1370.9525 0.0000 0.0000 1824.5072 -7345.2929 312.1842 -9169.8001 -7372.0720 301.2031 -266.7190 -205.6274 29915.2209 -363.1801 -285.8108
ENERGY: 1500000 7.1461 12.1351 12.5238 0.0000 -10646.7144 1386.5646 0.0000 0.0000 1783.6971 -7444.6477 305.2014 -9228.3448 -7369.5479 301.3222 -616.8865 -463.7370 30315.9193 -292.0286 -216.9063
TCL: Running FEP window  17: Lambda1 0.8000000000000002 Lambda2 0.8500000000000002 [dLambda 0.050000000000000044]
TCL: Setting parameter firsttimestep to 0
TCL: Setting parameter alchLambda to 0.8000000000000002
Info: NONBONDED TABLE R-SQUARED SPACING: 0.0625
Info: NONBONDED TABLE SIZE: 705 POINTS
TCL: Setting parameter alchLambda2 to 0.8500000000000002
Info: NONBONDED TABLE R-SQUARED SPACING: 0.0625
Info: NONBONDED TABLE SIZE: 705 POINTS
TCL: Running for 1500000 steps
ETITLE: TS BOND ANGLE DIHED IMPRP ELECT VDW BOUNDARY MISC KINETIC TOTAL TEMP POTENTIAL TOTALAVG TEMPAVG PRESSURE GPRESSURE VOLUME PRESSAVG GPRESSAVG
ENERGY: 0 7.1461 12.1351 12.5238 0.0000 -10647.2392 1385.5802 0.0000 0.0000 1782.8572 -7446.9969 305.0577 -9229.8541 -7446.9969 305.0577 -539.5109 -459.6688 30315.9193 -539.5109 -459.6688
ENERGY: 300000 4.9293 9.5178 12.6352 0.0000 -10561.5543 1404.3960 0.0000 0.0000 1758.4703 -7371.6058 300.8849 -9130.0761 -7397.2600 302.2593 -8.3547 -5.3702 30252.9841 -159.1142 -123.8114
ENERGY: 600000 5.5858 11.6276 17.1263 0.0000 -10669.7320 1456.2144 0.0000 0.0000 1789.7040 -7389.4739 306.2292 -9179.1779 -7385.1993 303.0776 540.4224 616.8382 30127.2721 123.5599 172.5880
ENERGY: 900000 5.5289 13.2307 16.4333 0.0000 -10612.1802 1436.4210 0.0000 0.0000 1803.1560 -7337.4104 308.5309 -9140.5664 -7382.5139 302.7131 -28.8864 29.9625 30543.5889 101.0044 144.6862
ENERGY: 1200000 4.4824 10.6839 13.7692 0.0000 -10512.3539 1368.8548 0.0000 0.0000 1739.9016 -7374.6620 297.7077 -9114.5636 -7383.4087 303.1076 -526.4974 -430.2060 30508.1421 4.7647 48.8773
ENERGY: 1500000 4.3645 9.8760 15.7329 0.0000 -10583.7332 1430.9179 0.0000 0.0000 1728.3034 -7394.5386 295.7232 -9122.8420 -7389.5623 301.3351 102.5788 104.1863 30015.0127 -48.1013 -6.5099
TCL: Running FEP window  18: Lambda1 0.8500000000000002 Lambda2 0.9000000000000002 [dLambda 0.050000000000000044]
TCL: Setting parameter firsttimestep to 0
TCL: Setting parameter alchLambda to 0.8500000000000002
Info: NONBONDED TABLE R-SQUARED SPACING: 0.0625
Info: NONBONDED TABLE SIZE: 705 POINTS
TCL: Setting parameter alchLambda2 to 0.9000000000000002
Info: NONBONDED TABLE R-SQUARED SPACING: 0.0625
Info: NONBONDED TABLE SIZE: 705 POINTS
TCL: Running for 1500000 steps
ETITLE: TS BOND ANGLE DIHED IMPRP ELECT VDW BOUNDARY MISC KINETIC TOTAL TEMP POTENTIAL TOTALAVG TEMPAVG PRESSURE GPRESSURE VOLUME PRESSAVG GPRESSAVG
ENERGY: 0 4.3645 9.8760 15.7329 0.0000 -10585.4103 1430.4322 0.0000 0.0000 1727.4475 -7397.5572 295.5767 -9125.0047 -7397.5572 295.5767 27.4395 111.4500 30015.0127 27.4395 111.4500
ENERGY: 300000 3.7641 14.7700 15.5225 0.0000 -10618.7378 1398.5097 0.0000 0.0000 1800.7529 -7385.4186 308.1197 -9186.1715 -7352.6423 302.2316 -195.4087 -119.1383 30133.9101 -102.1867 -34.8213
ENERGY: 600000 2.7302 11.3813 15.4059 0.0000 -10725.2111 1509.6363 0.0000 0.0000 1722.9151 -7463.1424 294.8012 -9186.0575 -7394.4780 299.2360 715.0583 798.6033 29732.8085 -185.3634 -103.1867
ENERGY: 900000 6.3206 13.1720 18.5459 0.0000 -10537.7593 1363.4846 0.0000 0.0000 1763.5943 -7372.6420 301.7616 -9136.2363 -7399.8289 299.7262 -310.5291 -254.0845 30069.9264 -66.2850 17.5191
ENERGY: 1200000 5.1117 14.7815 19.5817 0.0000 -10604.2305 1375.0375 0.0000 0.0000 1729.0307 -7460.6874 295.8476 -9189.7181 -7404.9456 299.7628 -406.3249 -362.3909 30131.5470 7.0720 80.2038
ENERGY: 1500000 2.2172 7.8261 23.6888 0.0000 -10475.2611 1306.6033 0.0000 0.0000 1751.8702 -7383.0555 299.7556 -9134.9257 -7401.6682 300.3334 -1011.3416 -979.0969 30843.4500 -84.4193 -17.6864
TCL: Running FEP window  19: Lambda1 0.9000000000000002 Lambda2 0.9500000000000003 [dLambda 0.050000000000000044]
TCL: Setting parameter firsttimestep to 0
TCL: Setting parameter alchLambda to 0.9000000000000002
Info: NONBONDED TABLE R-SQUARED SPACING: 0.0625
Info: NONBONDED TABLE SIZE: 705 POINTS
TCL: Setting parameter alchLambda2 to 0.9500000000000003
Info: NONBONDED TABLE R-SQUARED SPACING: 0.0625
Info: NONBONDED TABLE SIZE: 705 POINTS
TCL: Running for 1500000 steps
ETITLE: TS BOND ANGLE DIHED IMPRP ELECT VDW BOUNDARY MISC KINETIC TOTAL TEMP POTENTIAL TOTALAVG TEMPAVG PRESSURE GPRESSURE VOLUME PRESSAVG GPRESSAVG
ENERGY: 0 2.2172 7.8261 23.6888 0.0000 -10477.0045 1307.3808 0.0000 0.0000 1751.0261 -7384.8656 299.6112 -9135.8916 -7384.8656 299.6112 -1041.2775 -953.8001 30843.4500 -1041.2775 -953.8001
ENERGY: 300000 9.5458 12.0800 14.6661 0.0000 -10548.3176 1334.0252 0.0000 0.0000 1746.5345 -7431.4661 298.8426 -9178.0005 -7395.8140 301.5559 -909.2338 -840.3334 29854.8342 -205.0060 -144.0836
ENERGY: 600000 3.1968 11.1065 16.5816 0.0000 -10641.6963 1468.0365 0.0000 0.0000 1723.4337 -7419.3412 294.8899 -9142.7749 -7422.8570 298.4678 455.1548 487.8469 30244.5560 -27.0663 28.9247
ENERGY: 900000 2.2502 8.8534 20.5180 0.0000 -10438.7959 1312.4121 0.0000 0.0000 1739.2061 -7355.5562 297.5887 -9094.7623 -7402.0097 299.3822 -710.3312 -591.4747 30504.5565 -198.5295 -129.4343
ENERGY: 1200000 3.5759 14.5474 14.2626 0.0000 -10666.9644 1444.0917 0.0000 0.0000 1760.9843 -7429.5025 301.3151 -9190.4868 -7410.1444 299.6567 145.0891 167.5654 30198.7153 19.2640 78.3093
ENERGY: 1500000 6.6119 8.6597 15.8472 0.0000 -10446.2755 1272.0410 0.0000 0.0000 1745.9883 -7397.1274 298.7492 -9143.1157 -7413.5955 299.4315 -1366.2768 -1243.3966 30527.3296 -51.5111 12.4539
TCL: Running FEP window  20: Lambda1 0.9500000000000003 Lambda2 1.0    [dLambda 0.04999999999999971]
TCL: Setting parameter firsttimestep to 0
TCL: Setting parameter alchLambda to 0.9500000000000003
Info: NONBONDED TABLE R-SQUARED SPACING: 0.0625
Info: NONBONDED TABLE SIZE: 705 POINTS
TCL: Setting parameter alchLambda2 to 1.0
Info: NONBONDED TABLE R-SQUARED SPACING: 0.0625
Info: NONBONDED TABLE SIZE: 705 POINTS
TCL: Running for 1500000 steps
ETITLE: TS BOND ANGLE DIHED IMPRP ELECT VDW BOUNDARY MISC KINETIC TOTAL TEMP POTENTIAL TOTALAVG TEMPAVG PRESSURE GPRESSURE VOLUME PRESSAVG GPRESSAVG
ENERGY: 0 6.6119 8.6597 15.8472 0.0000 -10447.8879 1272.7096 0.0000 0.0000 1745.0722 -7398.9874 298.5924 -9144.0595 -7398.9874 298.5924 -1300.2842 -1218.9947 30527.3296 -1300.2842 -1218.9947
ENERGY: 300000 5.6514 15.0825 15.0773 0.0000 -10708.4763 1498.3867 0.0000 0.0000 1729.7067 -7444.5719 295.9633 -9174.2785 -7383.1997 301.1935 617.9256 609.2438 30189.3557 -72.7318 -40.6289
ENERGY: 600000 5.0905 10.8512 18.8546 0.0000 -10567.4254 1327.4682 0.0000 0.0000 1737.9117 -7467.2491 297.3672 -9205.1609 -7385.5626 300.7901 -816.5127 -733.6474 30051.0290 -102.4485 -61.3691
ENERGY: 900000 6.2356 8.7540 15.7382 0.0000 -10554.9776 1414.6440 0.0000 0.0000 1741.3751 -7368.2308 297.9598 -9109.6058 -7385.1653 300.4749 116.5976 242.8087 30066.1540 -49.7158 8.3439
ENERGY: 1200000 7.3381 13.3759 14.4360 0.0000 -10544.5170 1301.2089 0.0000 0.0000 1801.5542 -7406.6039 308.2568 -9208.1581 -7388.7067 300.8025 -1018.4146 -1003.8741 30131.0119 -57.6551 -9.8325
ENERGY: 1500000 3.7604 10.5642 17.4249 0.0000 -10576.2439 1407.3033 0.0000 0.0000 1693.9118 -7443.2794 289.8386 -9137.1912 -7391.3553 300.6167 168.0055 257.4422 30018.7591 -42.2343 8.9254
TCL: Exiting due to exit command.
