Info: SIMULATION PARAMETERS:
Info: TIMESTEP               2
Info: NUMBER OF STEPS        0
Info: STEPS PER CYCLE        10
Info: PERIODIC CELL BASIS 1  31.8723 0 0
Info: PERIODIC CELL BASIS 2  0 30.4799 0
Info: PERIODIC CELL BASIS 3  0 0 31.4989
Info: PERIODIC CELL CENTER   0 0 0
Info: WRAPPING WATERS AROUND PERIODIC BOUNDARIES ON OUTPUT.
Info: WRAPPING ALL CLUSTERS AROUND PERIODIC BOUNDARIES ON OUTPUT.
Info: FIRST LDB TIMESTEP     50
Info: LAST LDB TIMESTEP     -1
Info: HOM BACKGROUND SCALING 1
Info: PME BACKGROUND SCALING 1
Info: MIN ATOMS PER PATCH    40
Info: EMPTY PATCH LOAD       40 ATOMS
Info: VELOCITY FILE          mobley_8124669_equil.vel
Info: CENTER OF MASS MOVING INITIALLY? NO
Info: DIELECTRIC             1
Info: EXCLUDE                SCALED ONE-FOUR
Info: 1-4 ELECTROSTATICS SCALED BY 0.833333
Info: MODIFIED 1-4 VDW PARAMETERS WILL BE USED
Info: DCD FILENAME           mobley_8124669_prod.dcd
Info: DCD FREQUENCY          100000
Info: DCD FIRST STEP         100000
Info: DCD FILE WILL CONTAIN UNIT CELL DATA
Info: XST FILENAME           mobley_8124669_prod.xst
Info: XST FREQUENCY          100000
Info: NO VELOCITY DCD OUTPUT
Info: NO FORCE DCD OUTPUT
Info: OUTPUT FILENAME        mobley_8124669_prod
Info: BINARY OUTPUT FILES WILL BE USED
Info: RESTART FILENAME       mobley_8124669_prod.restart
Info: RESTART FREQUENCY      100000
Info: BINARY RESTART FILES WILL BE USED
Info: CUTOFF                 9
Info: PAIRLIST DISTANCE      11
Info: PAIRLIST SHRINK RATE   0.01
Info: PAIRLIST GROW RATE     0.01
Info: PAIRLIST TRIGGER       0.3
Info: PAIRLISTS PER CYCLE    2
Info: PAIRLISTS ENABLED
Info: MARGIN                 2
Info: HYDROGEN GROUP CUTOFF  2.5
Info: PATCH DIMENSION        15.5
Info: ENERGY OUTPUT STEPS    100000
Info: ENERGY EVALUATION STEPS    100000
Info: OUTPUT ENERGY PRECISION 4
Info: CROSSTERM ENERGY INCLUDED IN DIHEDRAL
Info: TIMING OUTPUT STEPS    1000000
Info: PRESSURE OUTPUT STEPS  100000
Info: ALCHEMICAL FEP ON
Info: FEP CURRENT LAMBDA VALUE     1
Info: FEP COMPARISON LAMBDA VALUE  0.95
Info: FEP INTRA-ALCHEMICAL NON-BONDED INTERACTIONS WILL BE RETAINED
Info: FEP INTRA-ALCHEMICAL BONDED INTERACTIONS WILL BE RETAINED
Info: FEP VDW SHIFTING COEFFICIENT 5
Info: FEP ELEC. ACTIVE FOR ANNIHILATED PARTICLES BETWEEN LAMBDA = 0 AND LAMBDA = 0.5
Info: FEP ELEC. ACTIVE FOR EXNIHILATED PARTICLES BETWEEN LAMBDA = 0.5 AND LAMBDA = 1
Info: FEP VDW ACTIVE FOR ANNIHILATED PARTICLES BETWEEN LAMBDA = 0 AND LAMBDA = 1
Info: FEP VDW ACTIVE FOR EXNIHILATED PARTICLES BETWEEN LAMBDA = 0 AND LAMBDA = 1
Info: FEP BOND ACTIVE FOR ANNIHILATED PARTICLES BETWEEN LAMBDA = 1 AND LAMBDA = 1
Info: FEP BOND ACTIVE FOR EXNIHILATED PARTICLES BETWEEN LAMBDA = 0 AND LAMBDA = 0
Info: LANGEVIN DYNAMICS ACTIVE
Info: LANGEVIN TEMPERATURE   300
Info: LANGEVIN USING BBK INTEGRATOR
Info: LANGEVIN DAMPING COEFFICIENT IS 1 INVERSE PS
Info: LANGEVIN DYNAMICS APPLIED TO HYDROGENS
Info: LANGEVIN PISTON PRESSURE CONTROL ACTIVE
Info:        TARGET PRESSURE IS 1.01325 BAR
Info:     OSCILLATION PERIOD IS 50 FS
Info:             DECAY TIME IS 25 FS
Info:     PISTON TEMPERATURE IS 300 K
Info:       PRESSURE CONTROL IS GROUP-BASED
Info:    INITIAL STRAIN RATE IS 8.06551e-05 8.06551e-05 8.06551e-05
Info:       CELL FLUCTUATION IS ISOTROPIC
Info: PARTICLE MESH EWALD (PME) ACTIVE
Info: PME TOLERANCE               1e-06
Info: PME EWALD COEFFICIENT       0.348832
Info: PME INTERPOLATION ORDER     4
Info: PME GRID DIMENSIONS         32 32 32
Info: PME MAXIMUM GRID SPACING    1
Info: PME CALCULATION WILL BE PERFORMED ON GPU
Info: FULL ELECTROSTATIC EVALUATION FREQUENCY      2
Info: USING VERLET I (r-RESPA) MTS SCHEME.
Info: C1 SPLITTING OF LONG RANGE ELECTROSTATICS
Info: PLACING ATOMS IN PATCHES BY HYDROGEN GROUPS
Info: RIGID BONDS TO HYDROGEN : ALL
Info:         ERROR TOLERANCE : 1e-08
Info:          MAX ITERATIONS : 100
Info: RIGID WATER USING SETTLE ALGORITHM
Info: RANDOM NUMBER SEED     1744081891
Info: USE HYDROGEN BONDS?    NO
Info: Using AMBER format force field!
Info: AMBER PARM FILE        mobley_8124669.prmtop
Info: COORDINATE PDB         mobley_8124669.pdb
Info: Exclusions will be read from PARM file!
Info: SCNB (VDW SCALING)     2
Info: USING ARITHMETIC MEAN TO COMBINE L-J SIGMA PARAMETERS
Info: BINARY COORDINATES     mobley_8124669_equil.coor
Info: SUMMARY OF PARAMETERS:
Info: 16 BONDS
Info: 24 ANGLES
Info:   24 HARMONIC
Info:   0 COSINE-BASED
Info: 13 DIHEDRAL
Info: 0 IMPROPER
Info: 0 CROSSTERM
Info: 0 VDW
Info: 78 VDW_PAIRS
Info: 0 NBTHOLE_PAIRS
Info: To read alchdata from file: mobley_8124669.pdb
Info: To read alchflag data from column: 5
Info: STRUCTURE SUMMARY:
Info: 2972 ATOMS
Info: 2972 BONDS
Info: 67 ANGLES
Info: 93 DIHEDRALS
Info: 0 IMPROPERS
Info: 0 CROSSTERMS
Info: 3116 EXCLUSIONS
Info: 2954 RIGID BONDS
Info: ALCH: 0 ATOMS TO DISAPPEAR IN FINAL STATE
Info: ALCH: 38 ATOMS TO APPEAR IN FINAL STATE
Info: 5962 DEGREES OF FREEDOM
Info: 996 HYDROGEN GROUPS
Info: 4 ATOMS IN LARGEST HYDROGEN GROUP
Info: 996 MIGRATION GROUPS
Info: 4 ATOMS IN LARGEST MIGRATION GROUP
Info: TOTAL MASS = 17889.4 amu
Info: TOTAL CHARGE = 0.000199992 e
Info: MASS DENSITY = 0.970809 g/cm^3
Info: ATOM DENSITY = 0.0971242 atoms/A^3
Info: ADDED 0 IMPLICIT EXCLUSIONS
Info: NONBONDED TABLE R-SQUARED SPACING: 0.0625
Info: NONBONDED TABLE SIZE: 705 POINTS
Info: REMOVING COM VELOCITY -0.00887286 0.0327401 0.12509
Info: Use 3D box decompostion in PME FFT.
Info: Updated CUDA force table with 4096 elements.
Info: Updated CUDA LJ table with 12 x 12 elements.
Info: Found 36 unique exclusion lists needing 172 bytes
TCL: Running for 1500000 steps
ETITLE: TS BOND ANGLE DIHED IMPRP ELECT VDW BOUNDARY MISC KINETIC TOTAL TEMP POTENTIAL TOTALAVG TEMPAVG PRESSURE GPRESSURE VOLUME PRESSAVG GPRESSAVG
ENERGY: 0 7.7934 20.5512 11.2987 0.0000 -10742.3138 1468.6254 0.0000 0.0000 1797.4992 -7436.5459 303.4360 -9234.0451 -7436.5459 303.4360 384.0519 451.1032 30600.0103 384.0519 451.1032
ENERGY: 300000 6.2309 13.4227 10.4408 0.0000 -10749.1076 1418.6730 0.0000 0.0000 1795.1485 -7505.1917 303.0392 -9300.3402 -7479.1079 302.7923 221.9008 271.3099 30143.7016 298.6957 374.3131
ENERGY: 600000 5.0836 17.6154 13.7348 0.0000 -10659.6109 1339.8212 0.0000 0.0000 1813.1180 -7470.2381 306.0726 -9283.3560 -7461.2759 302.9831 -1078.7015 -975.0461 31018.9521 -200.8274 -133.9684
ENERGY: 900000 6.5798 17.6992 10.2071 0.0000 -10613.5421 1404.6208 0.0000 0.0000 1772.9647 -7401.4704 299.2943 -9174.4351 -7443.9035 303.2418 -151.3313 -68.2110 30826.6503 -110.9107 -40.8667
ENERGY: 1200000 9.7621 13.8713 15.7494 0.0000 -10824.5996 1485.4335 0.0000 0.0000 1714.0723 -7585.7109 289.3527 -9299.7832 -7467.7345 301.1458 479.4951 521.5108 30134.2496 -14.3619 53.5800
ENERGY: 1500000 5.4525 12.3467 11.0366 0.0000 -10530.4329 1379.8408 0.0000 0.0000 1804.9017 -7316.8547 304.6856 -9121.7564 -7465.0930 301.4916 -35.8325 57.0872 30766.4496 7.6946 78.4830
TCL: Running FEP window   2: Lambda1 0.95   Lambda2 0.8999999999999999 [dLambda -0.050000000000000044]
TCL: Setting parameter firsttimestep to 0
TCL: Setting parameter alchLambda to 0.95
Info: NONBONDED TABLE R-SQUARED SPACING: 0.0625
Info: NONBONDED TABLE SIZE: 705 POINTS
TCL: Setting parameter alchLambda2 to 0.8999999999999999
Info: NONBONDED TABLE R-SQUARED SPACING: 0.0625
Info: NONBONDED TABLE SIZE: 705 POINTS
TCL: Running for 1500000 steps
ETITLE: TS BOND ANGLE DIHED IMPRP ELECT VDW BOUNDARY MISC KINETIC TOTAL TEMP POTENTIAL TOTALAVG TEMPAVG PRESSURE GPRESSURE VOLUME PRESSAVG GPRESSAVG
ENERGY: 0 5.4525 12.3467 11.0366 0.0000 -10528.2229 1379.9513 0.0000 0.0000 1804.0195 -7315.4164 304.5367 -9119.4359 -7315.4164 304.5367 -28.3464 39.2825 30766.4496 -28.3464 39.2825
ENERGY: 300000 6.5633 15.0806 11.6291 0.0000 -10671.9075 1399.9213 0.0000 0.0000 1761.3750 -7477.3380 297.3379 -9238.7131 -7458.9863 300.5374 -44.8043 -38.1526 30568.0872 139.9273 205.9571
ENERGY: 600000 8.6257 14.3835 10.7766 0.0000 -10827.8700 1468.7926 0.0000 0.0000 1787.0214 -7538.2703 301.6672 -9325.2916 -7477.5315 300.0999 256.4800 330.1329 30168.8651 101.7992 176.6940
ENERGY: 900000 5.6993 17.0728 13.1640 0.0000 -10609.1918 1388.3053 0.0000 0.0000 1715.5753 -7469.3752 289.6064 -9184.9505 -7480.4716 299.5048 -219.6649 -173.8033 30943.5504 -5.3670 67.8128
ENERGY: 1200000 3.7629 13.5072 14.7061 0.0000 -10736.8167 1438.4022 0.0000 0.0000 1721.3085 -7545.1297 290.5743 -9266.4383 -7479.7092 298.7866 -394.2461 -349.9768 31510.3903 -51.5872 11.9203
ENERGY: 1500000 2.5539 15.7327 12.4993 0.0000 -10796.7042 1497.0938 0.0000 0.0000 1771.6893 -7497.1353 299.0790 -9268.8246 -7486.6256 299.2157 587.4889 650.3208 30565.5804 -49.8848 14.0302
TCL: Running FEP window   3: Lambda1 0.8999999999999999 Lambda2 0.8499999999999999 [dLambda -0.050000000000000044]
TCL: Setting parameter firsttimestep to 0
TCL: Setting parameter alchLambda to 0.8999999999999999
Info: NONBONDED TABLE R-SQUARED SPACING: 0.0625
Info: NONBONDED TABLE SIZE: 705 POINTS
TCL: Setting parameter alchLambda2 to 0.8499999999999999
Info: NONBONDED TABLE R-SQUARED SPACING: 0.0625
Info: NONBONDED TABLE SIZE: 705 POINTS
TCL: Running for 1500000 steps
ETITLE: TS BOND ANGLE DIHED IMPRP ELECT VDW BOUNDARY MISC KINETIC TOTAL TEMP POTENTIAL TOTALAVG TEMPAVG PRESSURE GPRESSURE VOLUME PRESSAVG GPRESSAVG
ENERGY: 0 2.5539 15.7327 12.4993 0.0000 -10794.5058 1497.7942 0.0000 0.0000 1770.8444 -7495.0813 298.9364 -9265.9257 -7495.0813 298.9364 566.3695 644.3950 30565.5804 566.3695 644.3950
ENERGY: 300000 5.9530 14.7596 16.4504 0.0000 -10776.6160 1458.7897 0.0000 0.0000 1763.8573 -7516.8061 297.7569 -9280.6633 -7502.2406 297.3233 149.1276 186.5882 30701.0108 43.2408 121.5981
ENERGY: 600000 4.5809 13.6956 13.1699 0.0000 -10683.6944 1431.6504 0.0000 0.0000 1856.9823 -7363.6152 313.4774 -9220.5975 -7476.7682 300.3000 153.5141 260.0069 30682.5895 22.0347 85.6051
ENERGY: 900000 4.8426 17.4438 12.9095 0.0000 -10573.1479 1363.2710 0.0000 0.0000 1806.6274 -7368.0537 304.9769 -9174.6811 -7456.2916 300.9880 -532.3556 -550.4388 31323.7893 -35.6332 15.3773
ENERGY: 1200000 8.4633 20.7983 11.0912 0.0000 -10675.5771 1373.0409 0.0000 0.0000 1773.4857 -7488.6975 299.3823 -9262.1833 -7461.4869 300.8806 -532.8065 -462.9175 30605.6537 -100.4162 -48.8379
ENERGY: 1500000 3.5026 16.3184 12.2155 0.0000 -10601.8045 1398.8569 0.0000 0.0000 1821.4329 -7349.4781 307.4763 -9170.9110 -7463.2857 300.9706 103.5021 182.1307 30526.7406 -108.9406 -52.7654
TCL: Running FEP window   4: Lambda1 0.8499999999999999 Lambda2 0.7999999999999998 [dLambda -0.050000000000000044]
TCL: Setting parameter firsttimestep to 0
TCL: Setting parameter alchLambda to 0.8499999999999999
Info: NONBONDED TABLE R-SQUARED SPACING: 0.0625
Info: NONBONDED TABLE SIZE: 705 POINTS
TCL: Setting parameter alchLambda2 to 0.7999999999999998
Info: NONBONDED TABLE R-SQUARED SPACING: 0.0625
Info: NONBONDED TABLE SIZE: 705 POINTS
TCL: Running for 1500000 steps
ETITLE: TS BOND ANGLE DIHED IMPRP ELECT VDW BOUNDARY MISC KINETIC TOTAL TEMP POTENTIAL TOTALAVG TEMPAVG PRESSURE GPRESSURE VOLUME PRESSAVG GPRESSAVG
ENERGY: 0 3.5026 16.3184 12.2155 0.0000 -10600.4307 1399.1429 0.0000 0.0000 1820.5482 -7348.7030 307.3269 -9169.2513 -7348.7030 307.3269 85.9011 165.6573 30526.7406 85.9011 165.6573
ENERGY: 300000 2.9946 11.4726 13.1933 0.0000 -10724.7123 1506.1183 0.0000 0.0000 1769.8987 -7421.0347 298.7768 -9190.9335 -7423.7266 301.9554 582.1504 689.2821 30869.4966 151.4365 244.1193
ENERGY: 600000 8.2346 21.1603 13.7784 0.0000 -10700.5115 1432.6225 0.0000 0.0000 1806.5037 -7418.2120 304.9561 -9224.7157 -7438.9662 299.9786 93.1284 161.8930 30461.7838 -26.2742 43.5049
ENERGY: 900000 5.2778 20.0045 11.3711 0.0000 -10675.5914 1430.9077 0.0000 0.0000 1808.3507 -7399.6796 305.2679 -9208.0303 -7446.7325 299.5289 120.4368 179.5848 30656.1898 -194.7775 -122.1976
ENERGY: 1200000 9.1881 18.0742 13.7476 0.0000 -10620.2362 1357.1792 0.0000 0.0000 1821.1900 -7400.8572 307.4352 -9222.0471 -7459.2863 300.6175 -537.0710 -433.8486 30463.5290 -179.4062 -107.0732
ENERGY: 1500000 9.0174 21.3718 9.7119 0.0000 -10701.1449 1413.6532 0.0000 0.0000 1800.1018 -7447.2889 303.8754 -9247.3907 -7457.7543 301.1290 -63.4541 -65.5498 30323.4732 -150.7336 -86.5906
TCL: Running FEP window   5: Lambda1 0.7999999999999998 Lambda2 0.7499999999999998 [dLambda -0.050000000000000044]
TCL: Setting parameter firsttimestep to 0
TCL: Setting parameter alchLambda to 0.7999999999999998
Info: NONBONDED TABLE R-SQUARED SPACING: 0.0625
Info: NONBONDED TABLE SIZE: 705 POINTS
TCL: Setting parameter alchLambda2 to 0.7499999999999998
Info: NONBONDED TABLE R-SQUARED SPACING: 0.0625
Info: NONBONDED TABLE SIZE: 705 POINTS
TCL: Running for 1500000 steps
ETITLE: TS BOND ANGLE DIHED IMPRP ELECT VDW BOUNDARY MISC KINETIC TOTAL TEMP POTENTIAL TOTALAVG TEMPAVG PRESSURE GPRESSURE VOLUME PRESSAVG GPRESSAVG
ENERGY: 0 9.0174 21.3718 9.7119 0.0000 -10699.3253 1414.1422 0.0000 0.0000 1799.2354 -7445.8466 303.7291 -9245.0820 -7445.8466 303.7291 -164.9619 -76.2435 30323.4732 -164.9619 -76.2435
ENERGY: 300000 5.9310 21.8509 11.9375 0.0000 -10678.5001 1428.0438 0.0000 0.0000 1796.1273 -7414.6095 303.2044 -9210.7368 -7456.6340 302.1290 -118.0859 -33.0421 31070.8606 -78.6536 -20.1738
ENERGY: 600000 7.1029 18.0073 10.6834 0.0000 -10780.6926 1419.8757 0.0000 0.0000 1728.5520 -7596.4712 291.7970 -9325.0232 -7462.9779 300.8491 -533.8924 -460.7068 30453.2299 -160.8480 -94.9183
ENERGY: 900000 8.4610 20.7979 9.5411 0.0000 -10744.1268 1455.1718 0.0000 0.0000 1790.0131 -7460.1418 302.1723 -9250.1549 -7460.2413 301.4355 465.4550 479.1490 30093.8410 -5.0665 56.1522
ENERGY: 1200000 7.4970 17.0761 12.2844 0.0000 -10717.0831 1450.8274 0.0000 0.0000 1781.0960 -7448.3022 300.6670 -9229.3982 -7453.5973 301.9985 -91.4878 -2.1472 30787.1414 -27.4537 34.3650
ENERGY: 1500000 7.7826 15.2726 9.9950 0.0000 -10575.4500 1360.9322 0.0000 0.0000 1764.3790 -7417.0885 297.8450 -9181.4676 -7453.4320 300.7510 -561.4999 -478.7200 30614.0916 -82.0116 -23.0450
TCL: Running FEP window   6: Lambda1 0.7499999999999998 Lambda2 0.6999999999999997 [dLambda -0.050000000000000044]
TCL: Setting parameter firsttimestep to 0
TCL: Setting parameter alchLambda to 0.7499999999999998
Info: NONBONDED TABLE R-SQUARED SPACING: 0.0625
Info: NONBONDED TABLE SIZE: 705 POINTS
TCL: Setting parameter alchLambda2 to 0.6999999999999997
Info: NONBONDED TABLE R-SQUARED SPACING: 0.0625
Info: NONBONDED TABLE SIZE: 705 POINTS
TCL: Running for 1500000 steps
ETITLE: TS BOND ANGLE DIHED IMPRP ELECT VDW BOUNDARY MISC KINETIC TOTAL TEMP POTENTIAL TOTALAVG TEMPAVG PRESSURE GPRESSURE VOLUME PRESSAVG GPRESSAVG
ENERGY: 0 7.7826 15.2726 9.9950 0.0000 -10573.6629 1360.7528 0.0000 0.0000 1763.5164 -7416.3435 297.6994 -9179.8598 -7416.3435 297.6994 -583.1563 -493.4709 30614.0916 -583.1563 -493.4709
ENERGY: 300000 11.1442 15.2023 12.1373 0.0000 -10748.9480 1504.6677 0.0000 0.0000 1761.9285 -7443.8680 297.4313 -9205.7965 -7424.3176 298.6093 690.6479 792.1700 30278.8339 -39.0656 28.0230
ENERGY: 600000 4.7533 11.4703 12.4725 0.0000 -10728.6820 1488.1232 0.0000 0.0000 1837.4255 -7374.4372 310.1760 -9211.8627 -7405.5819 300.7601 208.9961 301.2391 31067.7792 -88.5725 -25.5485
ENERGY: 900000 5.0575 19.2921 9.9615 0.0000 -10738.4695 1445.9925 0.0000 0.0000 1793.0940 -7465.0720 302.6924 -9258.1660 -7426.5036 300.0132 54.1756 79.7675 30658.9382 -51.8023 3.4520
ENERGY: 1200000 4.8388 17.1158 11.1558 0.0000 -10820.3736 1451.7126 0.0000 0.0000 1757.1267 -7578.4239 296.6207 -9335.5506 -7455.3477 299.4489 -210.6307 -121.0443 30554.0560 -99.1113 -37.3890
ENERGY: 1500000 6.1995 20.3247 13.2412 0.0000 -10667.6431 1411.5053 0.0000 0.0000 1730.3534 -7486.0190 292.1011 -9216.3724 -7455.6594 298.9215 -163.1525 -89.9319 30797.3455 -141.2139 -81.5557
TCL: Running FEP window   7: Lambda1 0.6999999999999997 Lambda2 0.6499999999999997 [dLambda -0.050000000000000044]
TCL: Setting parameter firsttimestep to 0
TCL: Setting parameter alchLambda to 0.6999999999999997
Info: NONBONDED TABLE R-SQUARED SPACING: 0.0625
Info: NONBONDED TABLE SIZE: 705 POINTS
TCL: Setting parameter alchLambda2 to 0.6499999999999997
Info: NONBONDED TABLE R-SQUARED SPACING: 0.0625
Info: NONBONDED TABLE SIZE: 705 POINTS
TCL: Running for 1500000 steps
ETITLE: TS BOND ANGLE DIHED IMPRP ELECT VDW BOUNDARY MISC KINETIC TOTAL TEMP POTENTIAL TOTALAVG TEMPAVG PRESSURE GPRESSURE VOLUME PRESSAVG GPRESSAVG
ENERGY: 0 6.1995 20.3247 13.2412 0.0000 -10666.8465 1412.3296 0.0000 0.0000 1729.5358 -7485.2158 291.9631 -9214.7515 -7485.2158 291.9631 -180.9415 -98.0316 30797.3455 -180.9415 -98.0316
ENERGY: 300000 7.5839 19.6549 13.5055 0.0000 -10854.0273 1510.0822 0.0000 0.0000 1768.9422 -7534.2586 298.6153 -9303.2009 -7494.2349 296.2820 524.9380 515.0515 30333.4497 -1.0392 74.3415
ENERGY: 600000 4.0486 18.3472 17.0099 0.0000 -10613.4664 1368.9295 0.0000 0.0000 1799.1694 -7405.9619 303.7180 -9205.1312 -7484.0877 297.1423 -395.8471 -358.6077 30731.8951 -63.1230 9.8027
ENERGY: 900000 5.0417 18.2939 10.2247 0.0000 -10858.6345 1515.2076 0.0000 0.0000 1771.0670 -7538.7996 298.9740 -9309.8666 -7496.0560 297.2678 720.3697 742.5036 29915.6832 -43.2097 23.3177
ENERGY: 1200000 6.8326 16.0180 13.2485 0.0000 -10791.1502 1488.8147 0.0000 0.0000 1743.6137 -7522.6226 294.3396 -9266.2363 -7499.3505 297.4072 80.4969 171.9702 30499.6623 -110.4955 -42.3129
ENERGY: 1500000 6.6346 24.6108 12.5536 0.0000 -10851.1669 1515.9412 0.0000 0.0000 1792.2585 -7499.1682 302.5513 -9291.4268 -7493.8707 297.2946 547.3613 637.1955 30299.9489 -83.5494 -20.1580
TCL: Running FEP window   8: Lambda1 0.6499999999999997 Lambda2 0.5999999999999996 [dLambda -0.050000000000000044]
TCL: Setting parameter firsttimestep to 0
TCL: Setting parameter alchLambda to 0.6499999999999997
Info: NONBONDED TABLE R-SQUARED SPACING: 0.0625
Info: NONBONDED TABLE SIZE: 705 POINTS
TCL: Setting parameter alchLambda2 to 0.5999999999999996
Info: NONBONDED TABLE R-SQUARED SPACING: 0.0625
Info: NONBONDED TABLE SIZE: 705 POINTS
TCL: Running for 1500000 steps
ETITLE: TS BOND ANGLE DIHED IMPRP ELECT VDW BOUNDARY MISC KINETIC TOTAL TEMP POTENTIAL TOTALAVG TEMPAVG PRESSURE GPRESSURE VOLUME PRESSAVG GPRESSAVG
ENERGY: 0 6.6346 24.6107 12.5536 0.0000 -10850.5577 1516.5623 0.0000 0.0000 1791.3718 -7498.8247 302.4016 -9290.1965 -7498.8247 302.4016 532.5881 627.9236 30299.9489 532.5881 627.9236
ENERGY: 300000 5.0932 19.7702 15.6328 0.0000 -10653.5147 1388.1899 0.0000 0.0000 1769.5918 -7455.2369 298.7250 -9224.8287 -7421.7990 302.1626 -501.0749 -354.3996 30997.9925 -14.6160 91.2549
ENERGY: 600000 7.8884 17.6680 12.1632 0.0000 -10578.5672 1379.2556 0.0000 0.0000 1817.8509 -7343.7411 306.8716 -9161.5921 -7403.4731 303.8455 -434.3626 -387.8733 31140.4112 -124.7452 -33.0534
ENERGY: 900000 3.2721 16.0804 11.7704 0.0000 -10762.0179 1505.3195 0.0000 0.0000 1805.0180 -7420.5574 304.7053 -9225.5754 -7422.5873 301.4252 524.4279 551.3306 30847.1084 -64.8121 21.0789
ENERGY: 1200000 4.6464 20.7029 14.4494 0.0000 -10718.6947 1472.8261 0.0000 0.0000 1816.9043 -7389.1656 306.7118 -9206.0698 -7426.7094 300.9874 698.9628 679.8803 30311.6327 -53.1538 17.0617
ENERGY: 1500000 4.9102 13.6231 13.2792 0.0000 -10648.9094 1377.2453 0.0000 0.0000 1812.3118 -7427.5398 305.9365 -9239.8516 -7435.5227 300.5553 -442.6138 -352.8195 30731.9601 -46.5700 24.8824
TCL: Running FEP window   9: Lambda1 0.5999999999999996 Lambda2 0.5499999999999996 [dLambda -0.050000000000000044]
TCL: Setting parameter firsttimestep to 0
TCL: Setting parameter alchLambda to 0.5999999999999996
Info: NONBONDED TABLE R-SQUARED SPACING: 0.0625
Info: NONBONDED TABLE SIZE: 705 POINTS
TCL: Setting parameter alchLambda2 to 0.5499999999999996
Info: NONBONDED TABLE R-SQUARED SPACING: 0.0625
Info: NONBONDED TABLE SIZE: 705 POINTS
TCL: Running for 1500000 steps
ETITLE: TS BOND ANGLE DIHED IMPRP ELECT VDW BOUNDARY MISC KINETIC TOTAL TEMP POTENTIAL TOTALAVG TEMPAVG PRESSURE GPRESSURE VOLUME PRESSAVG GPRESSAVG
ENERGY: 0 4.9103 13.6231 13.2792 0.0000 -10648.7687 1377.6725 0.0000 0.0000 1811.4001 -7427.8836 305.7826 -9239.2837 -7427.8836 305.7826 -444.6580 -365.1986 30731.9601 -444.6580 -365.1986
ENERGY: 300000 5.1275 16.7947 13.3732 0.0000 -10728.4615 1463.9864 0.0000 0.0000 1764.6814 -7464.4983 297.8960 -9229.1797 -7452.7828 303.9455 247.1312 402.9417 30396.1942 -347.2398 -263.4734
ENERGY: 600000 7.2843 14.1103 12.7257 0.0000 -10767.0161 1467.8108 0.0000 0.0000 1815.3012 -7449.7837 306.4412 -9265.0850 -7444.1462 305.0798 223.7076 262.6725 30354.9235 -225.5918 -147.9443
ENERGY: 900000 7.0980 16.8500 13.5864 0.0000 -10741.6589 1453.0768 0.0000 0.0000 1770.0954 -7480.9522 298.8100 -9251.0476 -7467.3755 302.3191 121.8750 148.7442 30632.6791 -111.5195 -37.9496
ENERGY: 1200000 3.1782 13.9154 13.9193 0.0000 -10890.8526 1536.1410 0.0000 0.0000 1825.8622 -7497.8366 308.2240 -9323.6988 -7458.9765 302.3985 642.6807 736.7717 30330.0058 -17.6929 52.8904
ENERGY: 1500000 4.3487 12.9795 9.2862 0.0000 -10801.8135 1504.9707 0.0000 0.0000 1774.7507 -7495.4778 299.5958 -9270.2286 -7455.9879 301.9712 550.5119 589.9197 30375.0686 29.0543 96.2971
TCL: Running FEP window  10: Lambda1 0.5499999999999996 Lambda2 0.4999999999999996 [dLambda -0.04999999999999999]
TCL: Setting parameter firsttimestep to 0
TCL: Setting parameter alchLambda to 0.5499999999999996
Info: NONBONDED TABLE R-SQUARED SPACING: 0.0625
Info: NONBONDED TABLE SIZE: 705 POINTS
TCL: Setting parameter alchLambda2 to 0.4999999999999996
Info: NONBONDED TABLE R-SQUARED SPACING: 0.0625
Info: NONBONDED TABLE SIZE: 705 POINTS
TCL: Running for 1500000 steps
ETITLE: TS BOND ANGLE DIHED IMPRP ELECT VDW BOUNDARY MISC KINETIC TOTAL TEMP POTENTIAL TOTALAVG TEMPAVG PRESSURE GPRESSURE VOLUME PRESSAVG GPRESSAVG
ENERGY: 0 4.3487 12.9795 9.2862 0.0000 -10801.3588 1506.2799 0.0000 0.0000 1773.8866 -7494.5779 299.4500 -9268.4645 -7494.5779 299.4500 504.9166 592.2191 30375.0686 504.9166 592.2191
ENERGY: 300000 2.9508 17.4912 13.1195 0.0000 -10685.3836 1455.7537 0.0000 0.0000 1777.5059 -7418.5626 300.0609 -9196.0685 -7432.5226 300.2408 296.3743 390.3991 30181.7576 318.8373 396.2422
ENERGY: 600000 8.8321 16.9365 13.5228 0.0000 -10719.9587 1434.6050 0.0000 0.0000 1790.2574 -7455.8050 302.2135 -9246.0624 -7457.0784 300.0457 -36.6289 65.6777 30519.8630 94.6578 175.9082
ENERGY: 900000 7.8824 13.0824 13.6664 0.0000 -10495.0615 1311.8032 0.0000 0.0000 1789.4869 -7359.1402 302.0834 -9148.6271 -7425.3957 301.1380 -683.9892 -682.3774 30217.7666 -56.1038 20.3210
ENERGY: 1200000 6.7087 13.9295 12.6798 0.0000 -10607.1855 1359.5745 0.0000 0.0000 1734.0784 -7480.2146 292.7299 -9214.2930 -7425.2293 300.3646 -764.8150 -736.2805 31104.8992 -134.0743 -70.0056
ENERGY: 1500000 12.0126 12.3435 12.1862 0.0000 -10710.2624 1487.9849 0.0000 0.0000 1754.6111 -7431.1241 296.1961 -9185.7352 -7434.5538 299.2262 453.1784 478.8273 30249.0449 -100.0277 -37.7115
TCL: Running FEP window  11: Lambda1 0.4999999999999996 Lambda2 0.4499999999999996 [dLambda -0.04999999999999999]
TCL: Setting parameter firsttimestep to 0
TCL: Setting parameter alchLambda to 0.4999999999999996
Info: NONBONDED TABLE R-SQUARED SPACING: 0.0625
Info: NONBONDED TABLE SIZE: 705 POINTS
TCL: Setting parameter alchLambda2 to 0.4499999999999996
Info: NONBONDED TABLE R-SQUARED SPACING: 0.0625
Info: NONBONDED TABLE SIZE: 705 POINTS
TCL: Running for 1500000 steps
ETITLE: TS BOND ANGLE DIHED IMPRP ELECT VDW BOUNDARY MISC KINETIC TOTAL TEMP POTENTIAL TOTALAVG TEMPAVG PRESSURE GPRESSURE VOLUME PRESSAVG GPRESSAVG
ENERGY: 0 12.0126 12.3435 12.1862 0.0000 -10709.4095 1487.9433 0.0000 0.0000 1753.7002 -7431.2237 296.0423 -9184.9239 -7431.2237 296.0423 389.6301 462.8947 30249.0449 389.6301 462.8947
ENERGY: 300000 11.4168 18.5533 11.6767 0.0000 -10654.0299 1447.0252 0.0000 0.0000 1770.2352 -7395.1226 298.8336 -9165.3578 -7425.0080 297.2652 146.8775 174.1361 30845.7927 -287.2450 -227.5861
ENERGY: 600000 6.8796 19.8478 14.8043 0.0000 -10532.7349 1358.0775 0.0000 0.0000 1780.7315 -7352.3942 300.6054 -9133.1257 -7435.8392 297.7927 -680.3388 -626.3348 31158.2903 -339.1166 -274.7822
ENERGY: 900000 5.6941 17.5503 13.6991 0.0000 -10909.4238 1570.3532 0.0000 0.0000 1766.9071 -7535.2199 298.2718 -9302.1270 -7433.1337 300.4005 764.1612 878.6347 29883.3900 -127.7179 -54.4038
ENERGY: 1200000 9.3927 16.4988 12.9620 0.0000 -10665.1204 1381.6925 0.0000 0.0000 1749.3803 -7495.1942 295.3131 -9244.5745 -7436.8071 299.6961 -891.4916 -852.6514 30866.6158 -266.9358 -193.4725
ENERGY: 1500000 4.5764 10.8745 12.1620 0.0000 -10735.7579 1551.8810 0.0000 0.0000 1767.4644 -7388.7996 298.3658 -9156.2640 -7441.1135 300.1103 1512.7006 1520.9664 29888.8604 -113.3225 -42.6906
TCL: Running FEP window  12: Lambda1 0.4499999999999996 Lambda2 0.39999999999999963 [dLambda -0.04999999999999999]
TCL: Setting parameter firsttimestep to 0
TCL: Setting parameter alchLambda to 0.4499999999999996
Info: NONBONDED TABLE R-SQUARED SPACING: 0.0625
Info: NONBONDED TABLE SIZE: 705 POINTS
TCL: Setting parameter alchLambda2 to 0.39999999999999963
Info: NONBONDED TABLE R-SQUARED SPACING: 0.0625
Info: NONBONDED TABLE SIZE: 705 POINTS
TCL: Running for 1500000 steps
ETITLE: TS BOND ANGLE DIHED IMPRP ELECT VDW BOUNDARY MISC KINETIC TOTAL TEMP POTENTIAL TOTALAVG TEMPAVG PRESSURE GPRESSURE VOLUME PRESSAVG GPRESSAVG
ENERGY: 0 4.5764 10.8745 12.1620 0.0000 -10735.7569 1551.8355 0.0000 0.0000 1766.5874 -7389.7210 298.2178 -9156.3085 -7389.7210 298.2178 1408.0694 1507.6648 29888.8604 1408.0694 1507.6648
ENERGY: 300000 8.7321 11.0424 14.3003 0.0000 -10540.0404 1363.3635 0.0000 0.0000 1827.7077 -7314.8945 308.5355 -9142.6022 -7427.8067 299.0400 -612.4732 -484.5562 30885.9518 -59.5385 12.6107
ENERGY: 600000 3.2877 17.0311 11.6456 0.0000 -10691.0987 1405.3190 0.0000 0.0000 1824.9395 -7428.8758 308.0682 -9253.8153 -7456.8075 298.0920 82.1830 91.6180 30041.1793 -89.2840 -41.6081
ENERGY: 900000 6.7117 22.6145 16.9265 0.0000 -10723.6095 1490.3777 0.0000 0.0000 1776.6229 -7410.3561 299.9119 -9186.9790 -7437.0067 299.9192 169.6806 299.2658 31150.7981 -59.1329 -8.1308
ENERGY: 1200000 4.1565 13.8992 15.1408 0.0000 -10827.2260 1535.6680 0.0000 0.0000 1753.3158 -7505.0457 295.9774 -9258.3615 -7445.6417 299.6318 996.0196 1011.9708 30152.5961 19.0003 70.0964
ENERGY: 1500000 9.9683 15.9244 10.1653 0.0000 -10623.3798 1382.0243 0.0000 0.0000 1754.1005 -7451.1970 296.1099 -9205.2975 -7455.8670 299.5124 -392.7807 -386.6714 30646.0013 -47.9100 2.3365
TCL: Running FEP window  13: Lambda1 0.39999999999999963 Lambda2 0.34999999999999964 [dLambda -0.04999999999999999]
TCL: Setting parameter firsttimestep to 0
TCL: Setting parameter alchLambda to 0.39999999999999963
Info: NONBONDED TABLE R-SQUARED SPACING: 0.0625
Info: NONBONDED TABLE SIZE: 705 POINTS
TCL: Setting parameter alchLambda2 to 0.34999999999999964
Info: NONBONDED TABLE R-SQUARED SPACING: 0.0625
Info: NONBONDED TABLE SIZE: 705 POINTS
TCL: Running for 1500000 steps
ETITLE: TS BOND ANGLE DIHED IMPRP ELECT VDW BOUNDARY MISC KINETIC TOTAL TEMP POTENTIAL TOTALAVG TEMPAVG PRESSURE GPRESSURE VOLUME PRESSAVG GPRESSAVG
ENERGY: 0 9.9683 15.9244 10.1653 0.0000 -10623.3807 1382.3855 0.0000 0.0000 1753.2174 -7451.7198 295.9608 -9204.9372 -7451.7198 295.9608 -467.5208 -395.8148 30646.0013 -467.5208 -395.8148
ENERGY: 300000 8.3017 14.5427 12.8631 0.0000 -10687.2518 1411.1851 0.0000 0.0000 1842.3444 -7398.0147 311.0063 -9240.3591 -7440.4403 304.4875 -225.1689 -140.1611 30498.1426 -24.5608 50.7191
ENERGY: 600000 9.2289 12.3400 15.8269 0.0000 -10673.4441 1425.3273 0.0000 0.0000 1756.9990 -7453.7220 296.5992 -9210.7210 -7447.9187 300.2816 -235.3786 -163.1691 30715.3822 -197.8182 -136.1712
ENERGY: 900000 9.9980 19.6895 12.0152 0.0000 -10632.8390 1391.0469 0.0000 0.0000 1818.1678 -7381.9216 306.9251 -9200.0895 -7432.7515 301.8625 -277.1076 -286.6595 30719.2066 -179.2518 -121.6841
ENERGY: 1200000 5.2770 21.2411 13.0967 0.0000 -10635.2679 1361.4564 0.0000 0.0000 1803.2226 -7430.9740 304.4022 -9234.1966 -7432.2672 300.9150 -561.1190 -463.8512 30363.9472 -198.4120 -134.5954
ENERGY: 1500000 7.2168 20.2965 13.9786 0.0000 -10703.8187 1447.6435 0.0000 0.0000 1785.9501 -7428.7332 301.4864 -9214.6833 -7431.1616 300.4252 -141.2728 -110.0349 31139.3183 -120.2237 -61.6909
TCL: Running FEP window  14: Lambda1 0.34999999999999964 Lambda2 0.29999999999999966 [dLambda -0.04999999999999999]
TCL: Setting parameter firsttimestep to 0
TCL: Setting parameter alchLambda to 0.34999999999999964
Info: NONBONDED TABLE R-SQUARED SPACING: 0.0625
Info: NONBONDED TABLE SIZE: 705 POINTS
TCL: Setting parameter alchLambda2 to 0.29999999999999966
Info: NONBONDED TABLE R-SQUARED SPACING: 0.0625
Info: NONBONDED TABLE SIZE: 705 POINTS
TCL: Running for 1500000 steps
ETITLE: TS BOND ANGLE DIHED IMPRP ELECT VDW BOUNDARY MISC KINETIC TOTAL TEMP POTENTIAL TOTALAVG TEMPAVG PRESSURE GPRESSURE VOLUME PRESSAVG GPRESSAVG
ENERGY: 0 7.2168 20.2965 13.9786 0.0000 -10703.8190 1448.3445 0.0000 0.0000 1785.0494 -7428.9332 301.3344 -9213.9826 -7428.9332 301.3344 -187.2688 -111.3867 31139.3183 -187.2688 -111.3867
ENERGY: 300000 8.2996 16.1026 14.4306 0.0000 -10598.9712 1370.6518 0.0000 0.0000 1737.8077 -7451.6790 293.3595 -9189.4867 -7457.1866 296.2266 -360.1055 -377.3859 30369.5956 -1.3387 64.4821
ENERGY: 600000 7.8519 10.9805 14.3478 0.0000 -10599.9453 1390.4959 0.0000 0.0000 1803.3772 -7372.8918 304.4283 -9176.2691 -7425.2945 300.7267 -180.3692 -158.4063 30832.3642 -23.7142 27.4073
ENERGY: 900000 5.7151 18.3535 16.1012 0.0000 -10554.2911 1384.2410 0.0000 0.0000 1830.7224 -7299.1579 309.0444 -9129.8803 -7423.6016 300.9300 -247.0572 -236.6176 30786.3513 -68.4946 -21.5837
ENERGY: 1200000 10.2751 15.2302 9.2471 0.0000 -10714.7961 1457.3086 0.0000 0.0000 1743.1368 -7479.5984 294.2591 -9222.7352 -7430.6597 300.0894 -222.3898 -189.7377 30693.6420 -2.2164 45.6823
ENERGY: 1500000 6.8086 15.2953 11.4325 0.0000 -10560.0139 1339.1484 0.0000 0.0000 1807.3456 -7379.9835 305.0982 -9187.3290 -7433.2677 300.4303 -761.9473 -693.1393 30813.8114 -86.8158 -32.9331
TCL: Running FEP window  15: Lambda1 0.29999999999999966 Lambda2 0.24999999999999967 [dLambda -0.04999999999999999]
TCL: Setting parameter firsttimestep to 0
TCL: Setting parameter alchLambda to 0.29999999999999966
Info: NONBONDED TABLE R-SQUARED SPACING: 0.0625
Info: NONBONDED TABLE SIZE: 705 POINTS
TCL: Setting parameter alchLambda2 to 0.24999999999999967
Info: NONBONDED TABLE R-SQUARED SPACING: 0.0625
Info: NONBONDED TABLE SIZE: 705 POINTS
TCL: Running for 1500000 steps
ETITLE: TS BOND ANGLE DIHED IMPRP ELECT VDW BOUNDARY MISC KINETIC TOTAL TEMP POTENTIAL TOTALAVG TEMPAVG PRESSURE GPRESSURE VOLUME PRESSAVG GPRESSAVG
ENERGY: 0 6.8086 15.2953 11.4325 0.0000 -10560.0143 1340.0086 0.0000 0.0000 1806.4625 -7380.0067 304.9491 -9186.4693 -7380.0067 304.9491 -772.5368 -694.8589 30813.8114 -772.5368 -694.8589
ENERGY: 300000 8.0164 13.9823 11.3099 0.0000 -10622.4062 1368.5666 0.0000 0.0000 1790.1715 -7430.3595 302.1990 -9220.5310 -7447.5056 299.4467 -466.9336 -431.6831 30218.6663 -368.7546 -306.8288
ENERGY: 600000 6.5091 11.6522 12.4496 0.0000 -10511.0101 1384.7835 0.0000 0.0000 1759.8671 -7335.7485 297.0833 -9095.6157 -7411.1988 300.2828 -400.8108 -275.2072 30939.3276 -258.0781 -184.2536
ENERGY: 900000 6.2596 13.9606 10.2386 0.0000 -10725.4972 1457.2825 0.0000 0.0000 1757.6989 -7480.0570 296.7173 -9237.7558 -7420.4298 299.4519 160.8336 243.5200 30341.4030 -220.7377 -143.6952
ENERGY: 1200000 10.9883 13.1129 13.3335 0.0000 -10532.8878 1339.0791 0.0000 0.0000 1765.3572 -7391.0168 298.0101 -9156.3739 -7422.8793 299.7807 -765.8038 -694.6687 30248.9618 -295.9917 -221.1228
ENERGY: 1500000 8.0422 22.5286 13.9651 0.0000 -10615.5245 1354.4950 0.0000 0.0000 1782.4866 -7434.0069 300.9017 -9216.4935 -7425.5929 300.1113 -770.5077 -716.8049 30650.0033 -297.5755 -227.3774
TCL: Running FEP window  16: Lambda1 0.24999999999999967 Lambda2 0.19999999999999968 [dLambda -0.04999999999999999]
TCL: Setting parameter firsttimestep to 0
TCL: Setting parameter alchLambda to 0.24999999999999967
Info: NONBONDED TABLE R-SQUARED SPACING: 0.0625
Info: NONBONDED TABLE SIZE: 705 POINTS
TCL: Setting parameter alchLambda2 to 0.19999999999999968
Info: NONBONDED TABLE R-SQUARED SPACING: 0.0625
Info: NONBONDED TABLE SIZE: 705 POINTS
TCL: Running for 1500000 steps
ETITLE: TS BOND ANGLE DIHED IMPRP ELECT VDW BOUNDARY MISC KINETIC TOTAL TEMP POTENTIAL TOTALAVG TEMPAVG PRESSURE GPRESSURE VOLUME PRESSAVG GPRESSAVG
ENERGY: 0 8.0422 22.5286 13.9651 0.0000 -10615.5242 1354.5638 0.0000 0.0000 1781.5658 -7434.8587 300.7463 -9216.4245 -7434.8587 300.7463 -807.5852 -723.4711 30650.0033 -807.5852 -723.4711
ENERGY: 300000 6.1782 18.5015 15.6865 0.0000 -10658.7733 1385.4223 0.0000 0.0000 1772.3778 -7460.6071 299.1953 -9232.9849 -7456.8780 300.2785 -461.2363 -388.9162 30258.4879 -294.0154 -224.4217
ENERGY: 600000 5.4797 20.7557 12.0870 0.0000 -10766.8725 1505.6119 0.0000 0.0000 1808.3462 -7414.5921 305.2671 -9222.9383 -7429.1671 302.7572 570.6034 630.7095 30375.5994 -87.9935 -13.9496
ENERGY: 900000 5.3350 17.8422 13.9899 0.0000 -10566.7542 1411.5738 0.0000 0.0000 1784.7905 -7333.2228 301.2907 -9118.0133 -7425.8106 302.3116 -166.7555 -106.2346 30546.6686 -55.4310 6.3532
ENERGY: 1200000 4.8367 15.2688 15.3677 0.0000 -10681.9402 1436.1567 0.0000 0.0000 1737.0372 -7473.2730 293.2294 -9210.3102 -7431.3539 301.3274 -268.9384 -203.8056 31106.4139 -93.8014 -30.4787
ENERGY: 1500000 9.9647 10.3430 11.2498 0.0000 -10742.5248 1429.3419 0.0000 0.0000 1770.5525 -7511.0730 298.8871 -9281.6255 -7432.9198 301.2020 -287.9566 -254.1276 30439.8525 -90.2284 -30.2497
TCL: Running FEP window  17: Lambda1 0.19999999999999968 Lambda2 0.1499999999999997 [dLambda -0.04999999999999999]
TCL: Setting parameter firsttimestep to 0
TCL: Setting parameter alchLambda to 0.19999999999999968
Info: NONBONDED TABLE R-SQUARED SPACING: 0.0625
Info: NONBONDED TABLE SIZE: 705 POINTS
TCL: Setting parameter alchLambda2 to 0.1499999999999997
Info: NONBONDED TABLE R-SQUARED SPACING: 0.0625
Info: NONBONDED TABLE SIZE: 705 POINTS
TCL: Running for 1500000 steps
ETITLE: TS BOND ANGLE DIHED IMPRP ELECT VDW BOUNDARY MISC KINETIC TOTAL TEMP POTENTIAL TOTALAVG TEMPAVG PRESSURE GPRESSURE VOLUME PRESSAVG GPRESSAVG
ENERGY: 0 9.9646 10.3430 11.2498 0.0000 -10742.5227 1429.7274 0.0000 0.0000 1769.6985 -7511.5395 298.7430 -9281.2380 -7511.5395 298.7430 -341.9357 -258.2337 30439.8525 -341.9357 -258.2337
ENERGY: 300000 6.2733 14.0662 13.2101 0.0000 -10840.3505 1531.2857 0.0000 0.0000 1720.7226 -7554.7926 290.4753 -9275.5151 -7473.0868 296.0621 855.3924 846.5527 29707.5725 217.7140 261.2527
ENERGY: 600000 4.9680 17.8744 15.4719 0.0000 -10721.2237 1407.8335 0.0000 0.0000 1768.4976 -7506.5782 298.5403 -9275.0759 -7483.8945 297.4554 -532.5853 -424.9331 30712.4979 67.0302 122.4380
ENERGY: 900000 8.0119 19.3179 15.7981 0.0000 -10724.4832 1441.5663 0.0000 0.0000 1758.5038 -7481.2852 296.8532 -9239.7890 -7473.9236 297.9346 -162.0549 -70.2065 30778.5156 107.0411 165.5974
ENERGY: 1200000 7.2784 15.5266 13.5943 0.0000 -10799.9260 1517.3300 0.0000 0.0000 1801.7894 -7444.4072 304.1602 -9246.1966 -7459.9109 299.1759 500.3924 507.3513 30536.9535 173.2821 219.3201
ENERGY: 1500000 3.9558 15.2626 11.6135 0.0000 -10861.1905 1534.4537 0.0000 0.0000 1779.8680 -7516.0369 300.4597 -9295.9049 -7457.3165 299.8384 506.8997 613.9221 30341.9613 186.2632 239.0304
TCL: Running FEP window  18: Lambda1 0.1499999999999997 Lambda2 0.09999999999999969 [dLambda -0.05 ]
TCL: Setting parameter firsttimestep to 0
TCL: Setting parameter alchLambda to 0.1499999999999997
Info: NONBONDED TABLE R-SQUARED SPACING: 0.0625
Info: NONBONDED TABLE SIZE: 705 POINTS
TCL: Setting parameter alchLambda2 to 0.09999999999999969
Info: NONBONDED TABLE R-SQUARED SPACING: 0.0625
Info: NONBONDED TABLE SIZE: 705 POINTS
TCL: Running for 1500000 steps
ETITLE: TS BOND ANGLE DIHED IMPRP ELECT VDW BOUNDARY MISC KINETIC TOTAL TEMP POTENTIAL TOTALAVG TEMPAVG PRESSURE GPRESSURE VOLUME PRESSAVG GPRESSAVG
ENERGY: 0 3.9558 15.2626 11.6135 0.0000 -10861.1899 1534.2475 0.0000 0.0000 1778.9640 -7517.1465 300.3071 -9296.1105 -7517.1465 300.3071 519.4935 605.6146 30341.9613 519.4935 605.6146
ENERGY: 300000 6.9246 18.1994 11.4459 0.0000 -10803.6941 1519.8131 0.0000 0.0000 1815.2176 -7432.0934 306.4271 -9247.3110 -7485.1661 301.6091 167.6132 301.6030 30477.9041 205.8812 274.8243
ENERGY: 600000 5.1439 22.2823 14.9848 0.0000 -10662.5844 1362.7585 0.0000 0.0000 1768.3410 -7489.0739 298.5138 -9257.4149 -7466.6989 301.9431 -675.4756 -597.0834 30324.0036 -88.4671 -26.0934
ENERGY: 900000 6.9568 13.0836 15.0009 0.0000 -10701.8657 1456.2288 0.0000 0.0000 1745.8501 -7464.7456 294.7171 -9210.5957 -7464.2951 301.4869 26.0222 49.4402 30727.5292 15.6494 64.4375
ENERGY: 1200000 9.9188 14.9909 11.9718 0.0000 -10680.5182 1464.0988 0.0000 0.0000 1745.9869 -7433.5511 294.7402 -9179.5380 -7464.2744 300.3321 -142.2399 -81.4661 30684.5468 142.2195 193.3697
ENERGY: 1500000 5.3871 16.1941 12.2652 0.0000 -10734.4957 1456.7579 0.0000 0.0000 1813.4864 -7430.4049 306.1348 -9243.8913 -7456.1361 301.3578 269.3808 220.6333 29930.4384 136.1484 182.7025
TCL: Running FEP window  19: Lambda1 0.09999999999999969 Lambda2 0.049999999999999684 [dLambda -0.05 ]
TCL: Setting parameter firsttimestep to 0
TCL: Setting parameter alchLambda to 0.09999999999999969
Info: NONBONDED TABLE R-SQUARED SPACING: 0.0625
Info: NONBONDED TABLE SIZE: 705 POINTS
TCL: Setting parameter alchLambda2 to 0.049999999999999684
Info: NONBONDED TABLE R-SQUARED SPACING: 0.0625
Info: NONBONDED TABLE SIZE: 705 POINTS
TCL: Running for 1500000 steps
ETITLE: TS BOND ANGLE DIHED IMPRP ELECT VDW BOUNDARY MISC KINETIC TOTAL TEMP POTENTIAL TOTALAVG TEMPAVG PRESSURE GPRESSURE VOLUME PRESSAVG GPRESSAVG
ENERGY: 0 5.3871 16.1941 12.2652 0.0000 -10734.4964 1456.5171 0.0000 0.0000 1812.6401 -7431.4927 305.9919 -9244.1328 -7431.4927 305.9919 128.8715 212.5939 29930.4384 128.8715 212.5939
ENERGY: 300000 8.7927 11.8114 9.7649 0.0000 -10860.4202 1511.7400 0.0000 0.0000 1781.7792 -7536.5320 300.7823 -9318.3113 -7470.3425 302.1484 109.2599 146.6082 29973.4451 -167.5966 -95.0897
ENERGY: 600000 8.2157 10.5027 10.8025 0.0000 -10779.3945 1490.7890 0.0000 0.0000 1758.1541 -7500.9304 296.7942 -9259.0845 -7477.9687 301.0470 305.5299 300.7070 29967.7978 -33.3622 16.9461
ENERGY: 900000 8.8479 22.4231 15.7239 0.0000 -10569.8867 1379.8304 0.0000 0.0000 1796.6173 -7346.4440 303.2871 -9143.0613 -7473.4612 300.5242 -469.9490 -364.7117 30150.6277 -33.7434 29.6094
ENERGY: 1200000 3.6747 15.8850 13.9479 0.0000 -10768.7981 1464.8683 0.0000 0.0000 1824.1708 -7446.2515 307.9384 -9270.4223 -7476.2472 300.7916 151.8625 263.1702 30328.6109 -94.5457 -30.6202
ENERGY: 1500000 6.9728 19.1984 12.5345 0.0000 -10772.6583 1525.5389 0.0000 0.0000 1833.5001 -7374.9137 309.5133 -9208.4138 -7455.3822 301.8024 793.5902 844.5621 29969.8687 -19.6755 49.0024
TCL: Running FEP window  20: Lambda1 0.049999999999999684 Lambda2 0.0    [dLambda -0.049999999999999684]
TCL: Setting parameter firsttimestep to 0
TCL: Setting parameter alchLambda to 0.049999999999999684
Info: NONBONDED TABLE R-SQUARED SPACING: 0.0625
Info: NONBONDED TABLE SIZE: 705 POINTS
TCL: Setting parameter alchLambda2 to 0.0
Info: NONBONDED TABLE R-SQUARED SPACING: 0.0625
Info: NONBONDED TABLE SIZE: 705 POINTS
TCL: Running for 1500000 steps
ETITLE: TS BOND ANGLE DIHED IMPRP ELECT VDW BOUNDARY MISC KINETIC TOTAL TEMP POTENTIAL TOTALAVG TEMPAVG PRESSURE GPRESSURE VOLUME PRESSAVG GPRESSAVG
ENERGY: 0 6.9728 19.1984 12.5345 0.0000 -10772.6579 1524.6010 0.0000 0.0000 1832.6263 -7376.7249 309.3658 -9209.3512 -7376.7249 309.3658 745.6016 834.9633 29969.8687 745.6016 834.9633
ENERGY: 300000 5.6397 15.3387 15.7111 0.0000 -10776.2095 1545.4243 0.0000 0.0000 1751.2226 -7442.8731 295.6241 -9194.0957 -7427.7256 301.0697 855.0639 871.9823 30324.1606 372.4640 456.5067
ENERGY: 600000 3.3477 14.3418 12.9211 0.0000 -10734.8375 1471.4665 0.0000 0.0000 1783.4614 -7449.2990 301.0663 -9232.7604 -7453.7100 298.7862 321.2794 402.4515 30122.4475 374.1229 447.2884
ENERGY: 900000 3.3205 15.8297 11.9420 0.0000 -10792.4112 1470.4830 0.0000 0.0000 1779.6676 -7511.1684 300.4258 -9290.8359 -7466.7181 297.6759 485.3172 498.4461 29861.9326 265.0886 341.6260
ENERGY: 1200000 9.1953 13.0336 10.8962 0.0000 -10830.8179 1513.4952 0.0000 0.0000 1808.7880 -7475.4097 305.3417 -9284.1976 -7465.4926 299.0470 383.8190 407.8607 30166.5853 240.6709 317.2167
ENERGY: 1500000 4.4624 13.5059 12.3593 0.0000 -10620.3444 1380.0506 0.0000 0.0000 1746.7628 -7463.2033 294.8712 -9209.9661 -7455.1998 299.0416 -636.7107 -571.7379 30822.2358 163.6525 239.7440
TCL: Exiting due to exit command.
