Info: SIMULATION PARAMETERS:
Info: TIMESTEP               2
Info: NUMBER OF STEPS        0
Info: STEPS PER CYCLE        10
Info: PERIODIC CELL BASIS 1  31.792 0 0
Info: PERIODIC CELL BASIS 2  0 28.5143 0
Info: PERIODIC CELL BASIS 3  0 0 33.0688
Info: PERIODIC CELL CENTER   0 0 0
Info: WRAPPING WATERS AROUND PERIODIC BOUNDARIES ON OUTPUT.
Info: WRAPPING ALL CLUSTERS AROUND PERIODIC BOUNDARIES ON OUTPUT.
Info: FIRST LDB TIMESTEP     50
Info: LAST LDB TIMESTEP     -1
Info: HOM BACKGROUND SCALING 1
Info: PME BACKGROUND SCALING 1
Info: MIN ATOMS PER PATCH    40
Info: EMPTY PATCH LOAD       40 ATOMS
Info: VELOCITY FILE          mobley_3047364_equil.vel
Info: CENTER OF MASS MOVING INITIALLY? NO
Info: DIELECTRIC             1
Info: EXCLUDE                SCALED ONE-FOUR
Info: 1-4 ELECTROSTATICS SCALED BY 0.833333
Info: MODIFIED 1-4 VDW PARAMETERS WILL BE USED
Info: DCD FILENAME           mobley_3047364_prod.dcd
Info: DCD FREQUENCY          100000
Info: DCD FIRST STEP         100000
Info: DCD FILE WILL CONTAIN UNIT CELL DATA
Info: XST FILENAME           mobley_3047364_prod.xst
Info: XST FREQUENCY          100000
Info: NO VELOCITY DCD OUTPUT
Info: NO FORCE DCD OUTPUT
Info: OUTPUT FILENAME        mobley_3047364_prod
Info: BINARY OUTPUT FILES WILL BE USED
Info: RESTART FILENAME       mobley_3047364_prod.restart
Info: RESTART FREQUENCY      100000
Info: BINARY RESTART FILES WILL BE USED
Info: CUTOFF                 9
Info: PAIRLIST DISTANCE      11
Info: PAIRLIST SHRINK RATE   0.01
Info: PAIRLIST GROW RATE     0.01
Info: PAIRLIST TRIGGER       0.3
Info: PAIRLISTS PER CYCLE    2
Info: PAIRLISTS ENABLED
Info: MARGIN                 2
Info: HYDROGEN GROUP CUTOFF  2.5
Info: PATCH DIMENSION        15.5
Info: ENERGY OUTPUT STEPS    100000
Info: ENERGY EVALUATION STEPS    100000
Info: OUTPUT ENERGY PRECISION 4
Info: CROSSTERM ENERGY INCLUDED IN DIHEDRAL
Info: TIMING OUTPUT STEPS    1000000
Info: PRESSURE OUTPUT STEPS  100000
Info: ALCHEMICAL FEP ON
Info: FEP CURRENT LAMBDA VALUE     1
Info: FEP COMPARISON LAMBDA VALUE  0.95
Info: FEP INTRA-ALCHEMICAL NON-BONDED INTERACTIONS WILL BE RETAINED
Info: FEP INTRA-ALCHEMICAL BONDED INTERACTIONS WILL BE RETAINED
Info: FEP VDW SHIFTING COEFFICIENT 5
Info: FEP ELEC. ACTIVE FOR ANNIHILATED PARTICLES BETWEEN LAMBDA = 0 AND LAMBDA = 0.5
Info: FEP ELEC. ACTIVE FOR EXNIHILATED PARTICLES BETWEEN LAMBDA = 0.5 AND LAMBDA = 1
Info: FEP VDW ACTIVE FOR ANNIHILATED PARTICLES BETWEEN LAMBDA = 0 AND LAMBDA = 1
Info: FEP VDW ACTIVE FOR EXNIHILATED PARTICLES BETWEEN LAMBDA = 0 AND LAMBDA = 1
Info: FEP BOND ACTIVE FOR ANNIHILATED PARTICLES BETWEEN LAMBDA = 1 AND LAMBDA = 1
Info: FEP BOND ACTIVE FOR EXNIHILATED PARTICLES BETWEEN LAMBDA = 0 AND LAMBDA = 0
Info: LANGEVIN DYNAMICS ACTIVE
Info: LANGEVIN TEMPERATURE   300
Info: LANGEVIN USING BBK INTEGRATOR
Info: LANGEVIN DAMPING COEFFICIENT IS 1 INVERSE PS
Info: LANGEVIN DYNAMICS APPLIED TO HYDROGENS
Info: LANGEVIN PISTON PRESSURE CONTROL ACTIVE
Info:        TARGET PRESSURE IS 1.01325 BAR
Info:     OSCILLATION PERIOD IS 50 FS
Info:             DECAY TIME IS 25 FS
Info:     PISTON TEMPERATURE IS 300 K
Info:       PRESSURE CONTROL IS GROUP-BASED
Info:    INITIAL STRAIN RATE IS -9.76761e-05 -9.76761e-05 -9.76761e-05
Info:       CELL FLUCTUATION IS ISOTROPIC
Info: PARTICLE MESH EWALD (PME) ACTIVE
Info: PME TOLERANCE               1e-06
Info: PME EWALD COEFFICIENT       0.348832
Info: PME INTERPOLATION ORDER     4
Info: PME GRID DIMENSIONS         32 32 36
Info: PME MAXIMUM GRID SPACING    1
Info: PME CALCULATION WILL BE PERFORMED ON GPU
Info: FULL ELECTROSTATIC EVALUATION FREQUENCY      2
Info: USING VERLET I (r-RESPA) MTS SCHEME.
Info: C1 SPLITTING OF LONG RANGE ELECTROSTATICS
Info: PLACING ATOMS IN PATCHES BY HYDROGEN GROUPS
Info: RIGID BONDS TO HYDROGEN : ALL
Info:         ERROR TOLERANCE : 1e-08
Info:          MAX ITERATIONS : 100
Info: RIGID WATER USING SETTLE ALGORITHM
Info: RANDOM NUMBER SEED     1744083371
Info: USE HYDROGEN BONDS?    NO
Info: Using AMBER format force field!
Info: AMBER PARM FILE        mobley_3047364.prmtop
Info: COORDINATE PDB         mobley_3047364.pdb
Info: Exclusions will be read from PARM file!
Info: SCNB (VDW SCALING)     2
Info: USING ARITHMETIC MEAN TO COMBINE L-J SIGMA PARAMETERS
Info: BINARY COORDINATES     mobley_3047364_equil.coor
Info: SUMMARY OF PARAMETERS:
Info: 11 BONDS
Info: 16 ANGLES
Info:   16 HARMONIC
Info:   0 COSINE-BASED
Info: 8 DIHEDRAL
Info: 0 IMPROPER
Info: 0 CROSSTERM
Info: 0 VDW
Info: 45 VDW_PAIRS
Info: 0 NBTHOLE_PAIRS
Info: To read alchdata from file: mobley_3047364.pdb
Info: To read alchflag data from column: 5
Info: STRUCTURE SUMMARY:
Info: 2924 ATOMS
Info: 2924 BONDS
Info: 55 ANGLES
Info: 69 DIHEDRALS
Info: 0 IMPROPERS
Info: 0 CROSSTERMS
Info: 3040 EXCLUSIONS
Info: 2909 RIGID BONDS
Info: ALCH: 0 ATOMS TO DISAPPEAR IN FINAL STATE
Info: ALCH: 32 ATOMS TO APPEAR IN FINAL STATE
Info: 5863 DEGREES OF FREEDOM
Info: 979 HYDROGEN GROUPS
Info: 4 ATOMS IN LARGEST HYDROGEN GROUP
Info: 979 MIGRATION GROUPS
Info: 4 ATOMS IN LARGEST MIGRATION GROUP
Info: TOTAL MASS = 17594.8 amu
Info: TOTAL CHARGE = -1.11759e-07 e
Info: MASS DENSITY = 0.97464 g/cm^3
Info: ATOM DENSITY = 0.0975392 atoms/A^3
Info: ADDED 0 IMPLICIT EXCLUSIONS
Info: NONBONDED TABLE R-SQUARED SPACING: 0.0625
Info: NONBONDED TABLE SIZE: 705 POINTS
Info: REMOVING COM VELOCITY 0.0800436 -0.00325893 -0.211597
Info: Use 3D box decompostion in PME FFT.
Info: Updated CUDA force table with 4096 elements.
Info: Updated CUDA LJ table with 9 x 9 elements.
Info: Found 35 unique exclusion lists needing 128 bytes
TCL: Running for 1500000 steps
ETITLE: TS BOND ANGLE DIHED IMPRP ELECT VDW BOUNDARY MISC KINETIC TOTAL TEMP POTENTIAL TOTALAVG TEMPAVG PRESSURE GPRESSURE VOLUME PRESSAVG GPRESSAVG
ENERGY: 0 5.5093 14.5904 2.9523 0.0000 -10936.4802 1392.3686 0.0000 0.0000 1787.8722 -7733.1874 306.9071 -9521.0596 -7733.1874 306.9071 -72.2908 4.1498 29977.6972 -72.2908 4.1498
ENERGY: 300000 2.4820 25.5312 9.4775 0.0000 -11011.3027 1406.7385 0.0000 0.0000 1741.8622 -7825.2112 299.0090 -9567.0735 -7806.3603 297.8734 -266.7860 -200.3113 30395.7546 -314.1495 -256.0795
ENERGY: 600000 5.6310 24.2442 9.9542 0.0000 -10971.0590 1373.1352 0.0000 0.0000 1755.3074 -7802.7869 301.3170 -9558.0943 -7807.5792 297.5075 -490.7405 -411.1390 30570.4591 -239.8801 -173.8347
ENERGY: 900000 5.8491 16.3590 10.8118 0.0000 -10957.8787 1377.3469 0.0000 0.0000 1681.4419 -7866.0700 288.6372 -9547.5119 -7790.4639 299.1275 -181.3400 -104.7606 29869.4859 -153.2073 -93.6753
ENERGY: 1200000 5.4274 23.0370 7.2732 0.0000 -11041.0210 1494.3807 0.0000 0.0000 1773.5540 -7737.3488 304.4492 -9510.9027 -7790.1195 299.7382 639.6329 685.1546 30191.0844 14.6662 74.3106
ENERGY: 1500000 5.4806 18.2940 9.9697 0.0000 -11049.0033 1395.0383 0.0000 0.0000 1744.2444 -7875.9763 299.4179 -9620.2206 -7798.1041 299.5207 -252.7149 -220.7755 30013.3893 -39.9461 23.7600
TCL: Running FEP window   2: Lambda1 0.95   Lambda2 0.8999999999999999 [dLambda -0.050000000000000044]
TCL: Setting parameter firsttimestep to 0
TCL: Setting parameter alchLambda to 0.95
Info: NONBONDED TABLE R-SQUARED SPACING: 0.0625
Info: NONBONDED TABLE SIZE: 705 POINTS
TCL: Setting parameter alchLambda2 to 0.8999999999999999
Info: NONBONDED TABLE R-SQUARED SPACING: 0.0625
Info: NONBONDED TABLE SIZE: 705 POINTS
TCL: Running for 1500000 steps
ETITLE: TS BOND ANGLE DIHED IMPRP ELECT VDW BOUNDARY MISC KINETIC TOTAL TEMP POTENTIAL TOTALAVG TEMPAVG PRESSURE GPRESSURE VOLUME PRESSAVG GPRESSAVG
ENERGY: 0 5.4806 18.2941 9.9697 0.0000 -11045.8371 1394.0792 0.0000 0.0000 1743.4130 -7874.6005 299.2752 -9618.0136 -7874.6005 299.2752 -346.1440 -253.8740 30013.3893 -346.1440 -253.8740
ENERGY: 300000 6.5785 19.1833 11.4469 0.0000 -11002.9215 1438.9931 0.0000 0.0000 1830.7836 -7695.9361 314.2733 -9526.7196 -7813.5012 302.9386 520.6855 612.7684 29806.3357 57.4944 140.8677
ENERGY: 600000 8.2061 12.9078 8.2236 0.0000 -10973.1690 1361.9562 0.0000 0.0000 1736.9430 -7844.9322 298.1646 -9581.8752 -7801.6256 301.9725 -628.9611 -578.3454 30542.3107 0.8062 65.8872
ENERGY: 900000 7.3753 16.4703 11.6190 0.0000 -11020.7026 1405.4769 0.0000 0.0000 1718.2462 -7861.5149 294.9551 -9579.7611 -7809.9071 301.3378 181.4335 208.2825 29700.0684 3.7739 64.3450
ENERGY: 1200000 6.0791 21.7764 7.3189 0.0000 -10937.2860 1408.5052 0.0000 0.0000 1723.2168 -7770.3896 295.8083 -9493.6064 -7794.6511 299.9096 -245.7421 -203.8194 30473.5264 -55.6611 6.9999
ENERGY: 1500000 4.7155 14.3121 5.3704 0.0000 -11001.8744 1404.4664 0.0000 0.0000 1669.2341 -7903.7759 286.5416 -9573.0101 -7802.0696 299.2855 -322.5974 -307.2765 30218.7519 -38.8694 19.9546
TCL: Running FEP window   3: Lambda1 0.8999999999999999 Lambda2 0.8499999999999999 [dLambda -0.050000000000000044]
TCL: Setting parameter firsttimestep to 0
TCL: Setting parameter alchLambda to 0.8999999999999999
Info: NONBONDED TABLE R-SQUARED SPACING: 0.0625
Info: NONBONDED TABLE SIZE: 705 POINTS
TCL: Setting parameter alchLambda2 to 0.8499999999999999
Info: NONBONDED TABLE R-SQUARED SPACING: 0.0625
Info: NONBONDED TABLE SIZE: 705 POINTS
TCL: Running for 1500000 steps
ETITLE: TS BOND ANGLE DIHED IMPRP ELECT VDW BOUNDARY MISC KINETIC TOTAL TEMP POTENTIAL TOTALAVG TEMPAVG PRESSURE GPRESSURE VOLUME PRESSAVG GPRESSAVG
ENERGY: 0 4.7155 14.3121 5.3704 0.0000 -10998.1493 1402.8699 0.0000 0.0000 1668.3719 -7902.5095 286.3936 -9570.8815 -7902.5095 286.3936 -426.1920 -339.4141 30218.7519 -426.1920 -339.4141
ENERGY: 300000 5.8404 18.8998 9.8082 0.0000 -10914.3740 1372.0651 0.0000 0.0000 1754.2486 -7753.5119 301.1353 -9507.7605 -7810.2953 298.5728 -496.1989 -428.8838 30616.6585 -409.1063 -356.8025
ENERGY: 600000 7.4428 20.0454 7.0680 0.0000 -11058.2567 1463.6078 0.0000 0.0000 1703.0268 -7857.0659 292.3425 -9560.0927 -7806.2129 298.6794 262.2646 296.7832 30527.3776 -475.4092 -422.9965
ENERGY: 900000 5.1094 17.7063 5.0247 0.0000 -11001.2546 1399.5284 0.0000 0.0000 1771.0809 -7802.8049 304.0247 -9573.8858 -7803.7999 298.8544 42.4433 74.6908 29886.0669 -285.1844 -237.3324
ENERGY: 1200000 8.4074 17.0484 8.7356 0.0000 -11081.7429 1463.5408 0.0000 0.0000 1686.8246 -7897.1861 289.5612 -9584.0107 -7829.4837 298.1710 177.6915 228.4888 30118.0929 -219.8447 -172.4380
ENERGY: 1500000 7.2917 16.8166 5.3023 0.0000 -10931.6480 1403.6554 0.0000 0.0000 1750.9119 -7747.6701 300.5625 -9498.5820 -7826.0540 298.1955 113.0335 197.4886 29807.5821 -194.2197 -145.9713
TCL: Running FEP window   4: Lambda1 0.8499999999999999 Lambda2 0.7999999999999998 [dLambda -0.050000000000000044]
TCL: Setting parameter firsttimestep to 0
TCL: Setting parameter alchLambda to 0.8499999999999999
Info: NONBONDED TABLE R-SQUARED SPACING: 0.0625
Info: NONBONDED TABLE SIZE: 705 POINTS
TCL: Setting parameter alchLambda2 to 0.7999999999999998
Info: NONBONDED TABLE R-SQUARED SPACING: 0.0625
Info: NONBONDED TABLE SIZE: 705 POINTS
TCL: Running for 1500000 steps
ETITLE: TS BOND ANGLE DIHED IMPRP ELECT VDW BOUNDARY MISC KINETIC TOTAL TEMP POTENTIAL TOTALAVG TEMPAVG PRESSURE GPRESSURE VOLUME PRESSAVG GPRESSAVG
ENERGY: 0 7.2917 16.8167 5.3023 0.0000 -10928.0548 1402.6530 0.0000 0.0000 1750.0253 -7745.9659 300.4103 -9495.9912 -7745.9659 300.4103 80.0889 176.6130 29807.5821 80.0889 176.6130
ENERGY: 300000 5.3940 25.0752 7.5176 0.0000 -11018.9095 1368.1637 0.0000 0.0000 1766.7991 -7845.9598 303.2897 -9612.7589 -7796.7084 299.4950 -400.0134 -357.9447 29844.9662 -174.8877 -111.0144
ENERGY: 600000 4.5740 20.5923 6.4786 0.0000 -10766.5124 1263.2623 0.0000 0.0000 1737.6252 -7733.9801 298.2817 -9471.6053 -7803.4642 299.9788 -1139.1411 -1067.0252 30289.0691 -181.4896 -115.2912
ENERGY: 900000 7.8654 21.0839 6.1410 0.0000 -10908.3374 1409.2322 0.0000 0.0000 1747.1414 -7716.8735 299.9152 -9464.0149 -7776.7347 301.0351 94.0641 105.8103 30256.1838 -195.7471 -132.0595
ENERGY: 1200000 6.5697 20.7278 9.4777 0.0000 -10926.5026 1389.7278 0.0000 0.0000 1704.5286 -7795.4710 292.6003 -9499.9996 -7766.3531 301.2672 -360.6419 -346.1611 30193.9096 -252.4921 -191.4462
ENERGY: 1500000 5.5371 21.4319 6.5845 0.0000 -10959.0114 1432.6093 0.0000 0.0000 1730.3242 -7762.5244 297.0284 -9492.8486 -7770.7899 300.8285 -54.3361 65.7269 30518.3541 -188.3453 -118.9000
TCL: Running FEP window   5: Lambda1 0.7999999999999998 Lambda2 0.7499999999999998 [dLambda -0.050000000000000044]
TCL: Setting parameter firsttimestep to 0
TCL: Setting parameter alchLambda to 0.7999999999999998
Info: NONBONDED TABLE R-SQUARED SPACING: 0.0625
Info: NONBONDED TABLE SIZE: 705 POINTS
TCL: Setting parameter alchLambda2 to 0.7499999999999998
Info: NONBONDED TABLE R-SQUARED SPACING: 0.0625
Info: NONBONDED TABLE SIZE: 705 POINTS
TCL: Running for 1500000 steps
ETITLE: TS BOND ANGLE DIHED IMPRP ELECT VDW BOUNDARY MISC KINETIC TOTAL TEMP POTENTIAL TOTALAVG TEMPAVG PRESSURE GPRESSURE VOLUME PRESSAVG GPRESSAVG
ENERGY: 0 5.5371 21.4319 6.5845 0.0000 -10955.3964 1431.4742 0.0000 0.0000 1729.4401 -7760.9287 296.8766 -9490.3687 -7760.9287 296.8766 -47.8942 41.0251 30518.3541 -47.8942 41.0251
ENERGY: 300000 3.7968 18.6901 6.7417 0.0000 -10919.4914 1339.9615 0.0000 0.0000 1754.3089 -7795.9924 301.1456 -9550.3013 -7788.4831 298.2418 -877.3633 -832.7158 30308.8363 108.2803 180.2645
ENERGY: 600000 10.4972 12.6249 4.6526 0.0000 -11014.2849 1420.6354 0.0000 0.0000 1797.5428 -7768.3320 308.5672 -9565.8747 -7785.1478 301.9505 180.5245 225.6877 29928.3199 282.4006 356.0345
ENERGY: 900000 3.8956 17.5420 7.7561 0.0000 -11004.6272 1370.2585 0.0000 0.0000 1722.5851 -7882.5899 295.6999 -9605.1751 -7812.0058 301.0766 -595.5569 -528.0580 29843.5339 117.3292 180.1544
ENERGY: 1200000 7.0182 23.2812 5.6579 0.0000 -11107.4181 1456.4231 0.0000 0.0000 1746.9617 -7868.0760 299.8844 -9615.0377 -7804.1902 301.8867 310.1739 350.6892 29831.1857 151.6559 213.6593
ENERGY: 1500000 5.4985 17.3824 4.1478 0.0000 -11032.2594 1433.7927 0.0000 0.0000 1772.8348 -7798.6032 304.3258 -9571.4381 -7802.2882 302.4052 165.2190 189.2082 30008.9422 146.4571 212.3873
TCL: Running FEP window   6: Lambda1 0.7499999999999998 Lambda2 0.6999999999999997 [dLambda -0.050000000000000044]
TCL: Setting parameter firsttimestep to 0
TCL: Setting parameter alchLambda to 0.7499999999999998
Info: NONBONDED TABLE R-SQUARED SPACING: 0.0625
Info: NONBONDED TABLE SIZE: 705 POINTS
TCL: Setting parameter alchLambda2 to 0.6999999999999997
Info: NONBONDED TABLE R-SQUARED SPACING: 0.0625
Info: NONBONDED TABLE SIZE: 705 POINTS
TCL: Running for 1500000 steps
ETITLE: TS BOND ANGLE DIHED IMPRP ELECT VDW BOUNDARY MISC KINETIC TOTAL TEMP POTENTIAL TOTALAVG TEMPAVG PRESSURE GPRESSURE VOLUME PRESSAVG GPRESSAVG
ENERGY: 0 5.4985 17.3824 4.1478 0.0000 -11030.2932 1434.2701 0.0000 0.0000 1771.9776 -7797.0169 304.1786 -9568.9945 -7797.0169 304.1786 100.8109 176.9271 30008.9422 100.8109 176.9271
ENERGY: 300000 6.8444 20.1014 8.5023 0.0000 -11079.2227 1477.3878 0.0000 0.0000 1744.8244 -7821.5623 299.5175 -9566.3867 -7781.1391 301.6565 748.1506 766.0731 29668.3526 269.9599 334.0464
ENERGY: 600000 7.6483 20.4761 3.4462 0.0000 -10996.3587 1417.7814 0.0000 0.0000 1826.3272 -7720.6796 313.5083 -9547.0068 -7778.1453 301.4793 -3.3527 91.0167 29766.4347 192.0511 256.1618
ENERGY: 900000 11.7197 17.7358 4.0923 0.0000 -10901.4241 1313.0212 0.0000 0.0000 1764.3976 -7790.4577 302.8774 -9554.8552 -7782.5712 301.6569 -640.0208 -584.1568 29964.6633 74.6158 136.4104
ENERGY: 1200000 6.1551 13.2119 3.4675 0.0000 -11088.5222 1461.6402 0.0000 0.0000 1736.7725 -7867.2750 298.1353 -9604.0475 -7795.6770 299.8497 208.6479 228.4695 29986.4381 -21.9445 32.8536
ENERGY: 1500000 11.6541 17.3364 4.4370 0.0000 -11061.7240 1472.5186 0.0000 0.0000 1795.2325 -7760.5455 308.1706 -9555.7779 -7801.3884 299.9853 715.7641 746.0960 29643.3532 11.4102 63.4215
TCL: Running FEP window   7: Lambda1 0.6999999999999997 Lambda2 0.6499999999999997 [dLambda -0.050000000000000044]
TCL: Setting parameter firsttimestep to 0
TCL: Setting parameter alchLambda to 0.6999999999999997
Info: NONBONDED TABLE R-SQUARED SPACING: 0.0625
Info: NONBONDED TABLE SIZE: 705 POINTS
TCL: Setting parameter alchLambda2 to 0.6499999999999997
Info: NONBONDED TABLE R-SQUARED SPACING: 0.0625
Info: NONBONDED TABLE SIZE: 705 POINTS
TCL: Running for 1500000 steps
ETITLE: TS BOND ANGLE DIHED IMPRP ELECT VDW BOUNDARY MISC KINETIC TOTAL TEMP POTENTIAL TOTALAVG TEMPAVG PRESSURE GPRESSURE VOLUME PRESSAVG GPRESSAVG
ENERGY: 0 11.6541 17.3364 4.4370 0.0000 -11058.7826 1471.5368 0.0000 0.0000 1794.3429 -7759.4754 308.0179 -9553.8183 -7759.4754 308.0179 641.7908 721.7434 29643.3532 641.7908 721.7434
ENERGY: 300000 9.7889 23.3249 3.5426 0.0000 -10852.0537 1324.4765 0.0000 0.0000 1743.6996 -7747.2212 299.3244 -9490.9208 -7796.4382 300.4592 -832.8621 -791.4060 30642.7357 -307.2492 -254.4223
ENERGY: 600000 6.6233 14.5658 4.9112 0.0000 -10978.1973 1449.0968 0.0000 0.0000 1724.3582 -7778.6419 296.0043 -9503.0001 -7789.1169 298.3806 184.2203 223.6683 30050.3093 -201.1123 -147.2813
ENERGY: 900000 3.8378 17.5597 3.4195 0.0000 -11145.6337 1505.5996 0.0000 0.0000 1676.1176 -7939.0995 287.7233 -9615.2171 -7805.0397 297.0678 376.6140 377.1597 29837.5288 -182.4570 -126.4551
ENERGY: 1200000 4.8149 17.0310 5.9032 0.0000 -10932.3981 1405.1978 0.0000 0.0000 1732.3277 -7767.1235 297.3723 -9499.4512 -7797.7292 296.9645 147.6626 187.3953 29854.3919 -203.7452 -150.0570
ENERGY: 1500000 8.9930 22.3721 4.5580 0.0000 -11256.3311 1635.7501 0.0000 0.0000 1709.5227 -7875.1352 293.4576 -9584.6579 -7805.6306 296.8368 1628.5422 1779.1754 29409.3337 10.2220 73.0575
TCL: Running FEP window   8: Lambda1 0.6499999999999997 Lambda2 0.5999999999999996 [dLambda -0.050000000000000044]
TCL: Setting parameter firsttimestep to 0
TCL: Setting parameter alchLambda to 0.6499999999999997
Info: NONBONDED TABLE R-SQUARED SPACING: 0.0625
Info: NONBONDED TABLE SIZE: 705 POINTS
TCL: Setting parameter alchLambda2 to 0.5999999999999996
Info: NONBONDED TABLE R-SQUARED SPACING: 0.0625
Info: NONBONDED TABLE SIZE: 705 POINTS
TCL: Running for 1500000 steps
ETITLE: TS BOND ANGLE DIHED IMPRP ELECT VDW BOUNDARY MISC KINETIC TOTAL TEMP POTENTIAL TOTALAVG TEMPAVG PRESSURE GPRESSURE VOLUME PRESSAVG GPRESSAVG
ENERGY: 0 8.9930 22.3721 4.5580 0.0000 -11254.5466 1635.0624 0.0000 0.0000 1708.6562 -7874.9049 293.3089 -9583.5611 -7874.9049 293.3089 1667.5282 1759.9499 29409.3337 1667.5282 1759.9499
ENERGY: 300000 5.8447 14.2040 3.9600 0.0000 -10975.7047 1401.0093 0.0000 0.0000 1775.2885 -7775.3982 304.7470 -9550.6867 -7823.3423 298.0980 -290.3003 -189.0640 29979.6705 186.8482 269.3969
ENERGY: 600000 5.7672 18.2898 3.0735 0.0000 -10970.8050 1434.5255 0.0000 0.0000 1764.7738 -7744.3751 302.9420 -9509.1490 -7781.1770 299.4342 47.4398 120.1272 30395.0115 23.7844 80.5060
ENERGY: 900000 8.8669 12.9839 7.6165 0.0000 -11118.4690 1479.5709 0.0000 0.0000 1785.8277 -7823.6031 306.5562 -9609.4307 -7787.2121 299.7017 730.8122 812.3155 29473.5802 7.4203 61.9554
ENERGY: 1200000 3.7108 20.2712 6.7785 0.0000 -11074.4004 1417.6320 0.0000 0.0000 1707.4484 -7918.5595 293.1015 -9626.0079 -7813.8202 297.6167 -384.5921 -354.6514 30171.4262 -104.5638 -52.5097
ENERGY: 1500000 6.0120 27.2900 9.9684 0.0000 -10967.2847 1421.5898 0.0000 0.0000 1737.9484 -7764.4760 298.3372 -9502.4244 -7812.5422 297.8188 213.2114 256.6859 29943.2749 -81.4232 -31.8963
TCL: Running FEP window   9: Lambda1 0.5999999999999996 Lambda2 0.5499999999999996 [dLambda -0.050000000000000044]
TCL: Setting parameter firsttimestep to 0
TCL: Setting parameter alchLambda to 0.5999999999999996
Info: NONBONDED TABLE R-SQUARED SPACING: 0.0625
Info: NONBONDED TABLE SIZE: 705 POINTS
TCL: Setting parameter alchLambda2 to 0.5499999999999996
Info: NONBONDED TABLE R-SQUARED SPACING: 0.0625
Info: NONBONDED TABLE SIZE: 705 POINTS
TCL: Running for 1500000 steps
ETITLE: TS BOND ANGLE DIHED IMPRP ELECT VDW BOUNDARY MISC KINETIC TOTAL TEMP POTENTIAL TOTALAVG TEMPAVG PRESSURE GPRESSURE VOLUME PRESSAVG GPRESSAVG
ENERGY: 0 6.0120 27.2900 9.9684 0.0000 -10965.7347 1422.3219 0.0000 0.0000 1737.1013 -7763.0409 298.1918 -9500.1423 -7763.0409 298.1918 182.3147 252.4850 29943.2749 182.3147 252.4850
ENERGY: 300000 8.3341 18.8082 9.0393 0.0000 -10985.8845 1421.5969 0.0000 0.0000 1707.3469 -7820.7592 293.0841 -9528.1060 -7779.7065 298.1345 -7.4386 75.7796 29904.1733 -14.6546 51.8415
ENERGY: 600000 11.7077 18.2149 3.3928 0.0000 -11090.8099 1507.5212 0.0000 0.0000 1708.4198 -7841.5536 293.2683 -9549.9734 -7799.5919 298.7163 547.4977 557.4306 30044.0047 190.3098 244.0884
ENERGY: 900000 7.0891 21.8853 7.1307 0.0000 -11002.0499 1423.6730 0.0000 0.0000 1757.1263 -7785.1455 301.6293 -9542.2718 -7788.3021 300.3405 -55.4738 53.4001 30397.6758 233.8479 295.8830
ENERGY: 1200000 2.9094 17.7064 4.7111 0.0000 -10908.1688 1366.3806 0.0000 0.0000 1753.5398 -7762.9215 301.0136 -9516.4613 -7780.7840 300.2205 -716.8482 -670.8681 30337.0504 159.5962 220.5393
ENERGY: 1500000 4.9730 21.3182 5.9134 0.0000 -10823.0950 1334.9162 0.0000 0.0000 1765.2724 -7690.7019 303.0276 -9455.9742 -7772.4824 300.8250 -641.8769 -583.5103 30550.4860 119.0596 175.1432
TCL: Running FEP window  10: Lambda1 0.5499999999999996 Lambda2 0.4999999999999996 [dLambda -0.04999999999999999]
TCL: Setting parameter firsttimestep to 0
TCL: Setting parameter alchLambda to 0.5499999999999996
Info: NONBONDED TABLE R-SQUARED SPACING: 0.0625
Info: NONBONDED TABLE SIZE: 705 POINTS
TCL: Setting parameter alchLambda2 to 0.4999999999999996
Info: NONBONDED TABLE R-SQUARED SPACING: 0.0625
Info: NONBONDED TABLE SIZE: 705 POINTS
TCL: Running for 1500000 steps
ETITLE: TS BOND ANGLE DIHED IMPRP ELECT VDW BOUNDARY MISC KINETIC TOTAL TEMP POTENTIAL TOTALAVG TEMPAVG PRESSURE GPRESSURE VOLUME PRESSAVG GPRESSAVG
ENERGY: 0 4.9730 21.3182 5.9134 0.0000 -10822.4868 1335.6635 0.0000 0.0000 1764.4075 -7690.2111 302.8792 -9454.6186 -7690.2111 302.8792 -668.5085 -588.3524 30550.4860 -668.5085 -588.3524
ENERGY: 300000 6.1393 14.1690 5.8876 0.0000 -10875.7392 1380.8024 0.0000 0.0000 1767.2274 -7701.5134 303.3632 -9468.7408 -7714.8766 302.8479 -339.8679 -254.7877 30266.5843 -420.9593 -345.2276
ENERGY: 600000 13.1437 22.1080 9.8912 0.0000 -11129.4984 1445.5263 0.0000 0.0000 1718.5893 -7920.2399 295.0140 -9638.8292 -7748.7373 301.6662 69.8283 144.9534 29756.3349 -395.5723 -331.3449
ENERGY: 900000 7.9153 19.6878 6.7944 0.0000 -10838.0579 1366.6880 0.0000 0.0000 1793.1062 -7643.8662 307.8056 -9436.9724 -7748.3802 301.4829 -207.5737 -167.4741 30292.0497 -326.8284 -263.4837
ENERGY: 1200000 8.0167 15.0525 6.5190 0.0000 -10964.4584 1377.2287 0.0000 0.0000 1730.7446 -7826.8969 297.1006 -9557.6415 -7764.0528 300.9633 -185.6591 -120.2514 29844.8467 -220.1309 -157.1483
ENERGY: 1500000 8.7921 13.2189 5.0992 0.0000 -10893.6460 1327.9329 0.0000 0.0000 1775.9749 -7762.6281 304.8648 -9538.6030 -7766.2868 301.3868 -773.4209 -739.4172 30276.8081 -235.2256 -177.4394
TCL: Running FEP window  11: Lambda1 0.4999999999999996 Lambda2 0.4499999999999996 [dLambda -0.04999999999999999]
TCL: Setting parameter firsttimestep to 0
TCL: Setting parameter alchLambda to 0.4999999999999996
Info: NONBONDED TABLE R-SQUARED SPACING: 0.0625
Info: NONBONDED TABLE SIZE: 705 POINTS
TCL: Setting parameter alchLambda2 to 0.4499999999999996
Info: NONBONDED TABLE R-SQUARED SPACING: 0.0625
Info: NONBONDED TABLE SIZE: 705 POINTS
TCL: Running for 1500000 steps
ETITLE: TS BOND ANGLE DIHED IMPRP ELECT VDW BOUNDARY MISC KINETIC TOTAL TEMP POTENTIAL TOTALAVG TEMPAVG PRESSURE GPRESSURE VOLUME PRESSAVG GPRESSAVG
ENERGY: 0 8.7921 13.2189 5.0992 0.0000 -10892.7408 1328.4936 0.0000 0.0000 1775.1260 -7762.0110 304.7191 -9537.1371 -7762.0110 304.7191 -826.1852 -748.0913 30276.8081 -826.1852 -748.0913
ENERGY: 300000 7.1890 16.5797 3.4459 0.0000 -11064.8963 1493.7055 0.0000 0.0000 1737.6473 -7806.3289 298.2855 -9543.9762 -7754.2377 301.3371 576.6480 715.5694 29837.6550 42.0884 150.7393
ENERGY: 600000 4.5734 15.9247 5.4559 0.0000 -11097.6396 1480.6283 0.0000 0.0000 1684.3719 -7906.6854 289.1402 -9591.0573 -7790.4008 298.6712 92.8392 181.8494 29810.0348 -127.7736 -41.8928
ENERGY: 900000 8.8384 15.3954 5.4678 0.0000 -11002.2349 1441.5780 0.0000 0.0000 1790.7983 -7740.1570 307.4094 -9530.9553 -7797.3419 298.1940 26.3509 97.4692 30027.1243 -181.6982 -104.7704
ENERGY: 1200000 9.4877 24.2821 5.4449 0.0000 -10940.2858 1351.7769 0.0000 0.0000 1731.2513 -7818.0429 297.1876 -9549.2942 -7796.0050 298.5297 -665.8718 -569.2229 29796.9710 -182.4744 -108.4359
ENERGY: 1500000 7.7299 20.2368 6.2512 0.0000 -11119.5472 1519.8259 0.0000 0.0000 1810.7275 -7754.7759 310.8305 -9565.5034 -7797.4222 299.2537 881.7406 891.2536 30018.6028 -94.1647 -29.4228
TCL: Running FEP window  12: Lambda1 0.4499999999999996 Lambda2 0.39999999999999963 [dLambda -0.04999999999999999]
TCL: Setting parameter firsttimestep to 0
TCL: Setting parameter alchLambda to 0.4499999999999996
Info: NONBONDED TABLE R-SQUARED SPACING: 0.0625
Info: NONBONDED TABLE SIZE: 705 POINTS
TCL: Setting parameter alchLambda2 to 0.39999999999999963
Info: NONBONDED TABLE R-SQUARED SPACING: 0.0625
Info: NONBONDED TABLE SIZE: 705 POINTS
TCL: Running for 1500000 steps
ETITLE: TS BOND ANGLE DIHED IMPRP ELECT VDW BOUNDARY MISC KINETIC TOTAL TEMP POTENTIAL TOTALAVG TEMPAVG PRESSURE GPRESSURE VOLUME PRESSAVG GPRESSAVG
ENERGY: 0 7.7299 20.2368 6.2512 0.0000 -11119.5461 1520.6398 0.0000 0.0000 1809.8427 -7754.8458 310.6786 -9564.6884 -7754.8458 310.6786 788.0560 885.3289 30018.6028 788.0560 885.3289
ENERGY: 300000 4.7291 15.5908 6.8448 0.0000 -11016.7435 1408.4563 0.0000 0.0000 1712.2885 -7868.8340 293.9324 -9581.1224 -7757.4820 299.0559 -340.0763 -263.1095 29821.3035 198.1452 262.0876
ENERGY: 600000 7.6824 14.9404 2.5355 0.0000 -11005.0926 1392.5612 0.0000 0.0000 1757.3274 -7830.0459 301.6638 -9587.3732 -7767.4872 300.2082 -74.7075 -65.4658 29655.1082 12.0447 75.0107
ENERGY: 900000 3.5080 18.1467 6.8073 0.0000 -11023.7698 1479.6282 0.0000 0.0000 1791.7382 -7723.9414 307.5708 -9515.6796 -7776.8195 299.7160 491.0417 554.1711 29822.3282 130.8185 191.6281
ENERGY: 1200000 7.7261 24.0308 9.9395 0.0000 -11130.9221 1500.4476 0.0000 0.0000 1796.6685 -7792.1096 308.4171 -9588.7781 -7779.9046 300.2298 486.8638 485.1123 29826.5851 53.3532 106.3001
ENERGY: 1500000 2.6266 18.0363 8.2032 0.0000 -10867.5157 1418.4222 0.0000 0.0000 1763.2071 -7657.0204 302.6731 -9420.2275 -7777.4381 299.5101 -263.0908 -168.6406 30799.8693 -76.4743 -19.1697
TCL: Running FEP window  13: Lambda1 0.39999999999999963 Lambda2 0.34999999999999964 [dLambda -0.04999999999999999]
TCL: Setting parameter firsttimestep to 0
TCL: Setting parameter alchLambda to 0.39999999999999963
Info: NONBONDED TABLE R-SQUARED SPACING: 0.0625
Info: NONBONDED TABLE SIZE: 705 POINTS
TCL: Setting parameter alchLambda2 to 0.34999999999999964
Info: NONBONDED TABLE R-SQUARED SPACING: 0.0625
Info: NONBONDED TABLE SIZE: 705 POINTS
TCL: Running for 1500000 steps
ETITLE: TS BOND ANGLE DIHED IMPRP ELECT VDW BOUNDARY MISC KINETIC TOTAL TEMP POTENTIAL TOTALAVG TEMPAVG PRESSURE GPRESSURE VOLUME PRESSAVG GPRESSAVG
ENERGY: 0 2.6266 18.0363 8.2032 0.0000 -10867.5157 1418.6700 0.0000 0.0000 1762.3313 -7657.6482 302.5228 -9419.9796 -7657.6482 302.5228 -263.3199 -178.5365 30799.8693 -263.3199 -178.5365
ENERGY: 300000 7.0561 19.0896 4.6989 0.0000 -10863.5322 1330.5250 0.0000 0.0000 1751.8511 -7750.3115 300.7237 -9502.1626 -7761.9975 296.2613 -893.8699 -852.9505 30482.1208 -255.8644 -200.7335
ENERGY: 600000 8.6412 15.2833 9.9989 0.0000 -11034.8624 1455.4574 0.0000 0.0000 1780.1568 -7765.3248 305.5827 -9545.4815 -7752.8538 299.1000 111.7474 213.7035 29828.1762 -241.3124 -188.8008
ENERGY: 900000 6.2518 22.0017 8.8063 0.0000 -10953.8346 1392.9920 0.0000 0.0000 1763.2126 -7760.5702 302.6740 -9523.7827 -7744.6299 300.4329 12.7447 48.2819 29576.1832 -243.6129 -188.6274
ENERGY: 1200000 3.3767 18.4863 5.3540 0.0000 -11108.3119 1497.7935 0.0000 0.0000 1731.5289 -7851.7726 297.2352 -9583.3015 -7755.3144 300.4307 451.4140 524.0759 29747.8921 -161.2101 -99.0811
ENERGY: 1500000 7.1826 19.3448 5.8310 0.0000 -10986.9487 1430.8422 0.0000 0.0000 1725.6324 -7798.1157 296.2230 -9523.7482 -7757.3931 299.9487 146.3137 176.8359 29992.3000 -137.0743 -74.6170
TCL: Running FEP window  14: Lambda1 0.34999999999999964 Lambda2 0.29999999999999966 [dLambda -0.04999999999999999]
TCL: Setting parameter firsttimestep to 0
TCL: Setting parameter alchLambda to 0.34999999999999964
Info: NONBONDED TABLE R-SQUARED SPACING: 0.0625
Info: NONBONDED TABLE SIZE: 705 POINTS
TCL: Setting parameter alchLambda2 to 0.29999999999999966
Info: NONBONDED TABLE R-SQUARED SPACING: 0.0625
Info: NONBONDED TABLE SIZE: 705 POINTS
TCL: Running for 1500000 steps
ETITLE: TS BOND ANGLE DIHED IMPRP ELECT VDW BOUNDARY MISC KINETIC TOTAL TEMP POTENTIAL TOTALAVG TEMPAVG PRESSURE GPRESSURE VOLUME PRESSAVG GPRESSAVG
ENERGY: 0 7.1826 19.3448 5.8310 0.0000 -10986.9500 1431.3253 0.0000 0.0000 1724.7841 -7798.4822 296.0774 -9523.2663 -7798.4822 296.0774 84.5593 168.2725 29992.3000 84.5593 168.2725
ENERGY: 300000 9.2192 22.1034 10.8775 0.0000 -10922.2075 1406.8016 0.0000 0.0000 1732.1417 -7741.0641 297.3404 -9473.2058 -7792.6173 297.8160 211.0954 255.5490 29664.2816 45.4109 120.7689
ENERGY: 600000 9.3673 12.6635 2.6974 0.0000 -10978.0102 1402.6848 0.0000 0.0000 1732.8762 -7817.7210 297.4665 -9550.5972 -7801.5136 296.9142 -56.8775 -47.5986 30081.4238 -129.3089 -72.8747
ENERGY: 900000 5.7689 18.9601 3.6452 0.0000 -11026.3417 1384.3103 0.0000 0.0000 1685.6898 -7927.9675 289.3664 -9613.6573 -7810.3532 297.3310 -270.9584 -228.5095 29435.1397 -203.3213 -143.8912
ENERGY: 1200000 3.6112 14.9295 8.4355 0.0000 -11060.1395 1437.9460 0.0000 0.0000 1715.7267 -7879.4905 294.5226 -9595.2172 -7806.7717 298.5483 -215.6818 -193.3010 29838.6779 -230.4341 -173.0272
ENERGY: 1500000 6.7944 15.1678 4.5517 0.0000 -10961.5067 1395.8010 0.0000 0.0000 1746.3404 -7792.8515 299.7777 -9539.1919 -7802.9874 299.0954 -82.1412 3.0463 29710.1481 -150.0026 -92.9174
TCL: Running FEP window  15: Lambda1 0.29999999999999966 Lambda2 0.24999999999999967 [dLambda -0.04999999999999999]
TCL: Setting parameter firsttimestep to 0
TCL: Setting parameter alchLambda to 0.29999999999999966
Info: NONBONDED TABLE R-SQUARED SPACING: 0.0625
Info: NONBONDED TABLE SIZE: 705 POINTS
TCL: Setting parameter alchLambda2 to 0.24999999999999967
Info: NONBONDED TABLE R-SQUARED SPACING: 0.0625
Info: NONBONDED TABLE SIZE: 705 POINTS
TCL: Running for 1500000 steps
ETITLE: TS BOND ANGLE DIHED IMPRP ELECT VDW BOUNDARY MISC KINETIC TOTAL TEMP POTENTIAL TOTALAVG TEMPAVG PRESSURE GPRESSURE VOLUME PRESSAVG GPRESSAVG
ENERGY: 0 6.7944 15.1678 4.5517 0.0000 -10961.5067 1395.6511 0.0000 0.0000 1745.4994 -7793.8423 299.6334 -9539.3417 -7793.8423 299.6334 -94.0180 -6.2021 29710.1481 -94.0180 -6.2021
ENERGY: 300000 8.5388 16.6783 5.6533 0.0000 -11123.4520 1557.3430 0.0000 0.0000 1772.6597 -7762.5789 304.2957 -9535.2386 -7749.1490 302.5738 1140.6704 1256.4633 29599.6493 25.6094 91.0415
ENERGY: 600000 8.5867 13.8670 2.9595 0.0000 -10828.3036 1321.9025 0.0000 0.0000 1800.8230 -7680.1649 309.1303 -9480.9879 -7741.9566 304.1363 -1002.6843 -869.5907 30512.4396 -152.5144 -84.5442
ENERGY: 900000 5.1272 17.4227 9.1581 0.0000 -10729.6647 1284.9963 0.0000 0.0000 1789.4495 -7623.5109 307.1779 -9412.9604 -7742.0197 303.3208 -959.1404 -889.1267 30351.4162 -128.6234 -60.8525
ENERGY: 1200000 6.3455 22.5263 3.9289 0.0000 -10944.4833 1404.7850 0.0000 0.0000 1732.3433 -7774.5543 297.3750 -9506.8976 -7746.9848 301.7238 -191.0582 -144.6863 30041.0530 -46.3216 18.3868
ENERGY: 1500000 6.7075 20.8265 3.0864 0.0000 -11156.0261 1466.7021 0.0000 0.0000 1746.1123 -7912.5912 299.7386 -9658.7036 -7766.3007 300.5943 -85.6743 -41.3328 29858.8986 -13.4043 42.9214
TCL: Running FEP window  16: Lambda1 0.24999999999999967 Lambda2 0.19999999999999968 [dLambda -0.04999999999999999]
TCL: Setting parameter firsttimestep to 0
TCL: Setting parameter alchLambda to 0.24999999999999967
Info: NONBONDED TABLE R-SQUARED SPACING: 0.0625
Info: NONBONDED TABLE SIZE: 705 POINTS
TCL: Setting parameter alchLambda2 to 0.19999999999999968
Info: NONBONDED TABLE R-SQUARED SPACING: 0.0625
Info: NONBONDED TABLE SIZE: 705 POINTS
TCL: Running for 1500000 steps
ETITLE: TS BOND ANGLE DIHED IMPRP ELECT VDW BOUNDARY MISC KINETIC TOTAL TEMP POTENTIAL TOTALAVG TEMPAVG PRESSURE GPRESSURE VOLUME PRESSAVG GPRESSAVG
ENERGY: 0 6.7075 20.8265 3.0864 0.0000 -11156.0271 1466.5076 0.0000 0.0000 1745.2594 -7913.6396 299.5922 -9658.8990 -7913.6396 299.5922 -143.2002 -51.7819 29858.8986 -143.2002 -51.7819
ENERGY: 300000 3.6875 19.7919 4.4699 0.0000 -11116.4503 1547.8645 0.0000 0.0000 1799.6945 -7740.9421 308.9365 -9540.6366 -7810.1547 301.2353 690.9852 760.5799 30133.2303 -111.3141 -25.0273
ENERGY: 600000 10.9806 15.5965 7.9047 0.0000 -10932.1160 1369.1903 0.0000 0.0000 1768.0876 -7760.3564 303.5109 -9528.4440 -7806.2066 300.4929 -618.1559 -499.5129 29845.1074 -145.5372 -72.4536
ENERGY: 900000 7.7589 13.5727 6.8648 0.0000 -11011.9305 1456.6006 0.0000 0.0000 1749.0644 -7778.0691 300.2454 -9527.1335 -7790.1855 302.1212 120.6836 192.0810 30236.2863 -105.1834 -41.7975
ENERGY: 1200000 6.0069 12.3233 4.9866 0.0000 -11173.5119 1455.1863 0.0000 0.0000 1720.8180 -7974.1907 295.3966 -9695.0087 -7804.8235 301.0775 84.6499 90.0534 29430.5017 -9.5565 50.4132
ENERGY: 1500000 7.2719 14.3050 4.8378 0.0000 -10998.9205 1463.7248 0.0000 0.0000 1731.9918 -7776.7892 297.3147 -9508.7810 -7793.2547 300.9958 290.5902 336.8711 30188.2081 32.0491 85.2685
TCL: Running FEP window  17: Lambda1 0.19999999999999968 Lambda2 0.1499999999999997 [dLambda -0.04999999999999999]
TCL: Setting parameter firsttimestep to 0
TCL: Setting parameter alchLambda to 0.19999999999999968
Info: NONBONDED TABLE R-SQUARED SPACING: 0.0625
Info: NONBONDED TABLE SIZE: 705 POINTS
TCL: Setting parameter alchLambda2 to 0.1499999999999997
Info: NONBONDED TABLE R-SQUARED SPACING: 0.0625
Info: NONBONDED TABLE SIZE: 705 POINTS
TCL: Running for 1500000 steps
ETITLE: TS BOND ANGLE DIHED IMPRP ELECT VDW BOUNDARY MISC KINETIC TOTAL TEMP POTENTIAL TOTALAVG TEMPAVG PRESSURE GPRESSURE VOLUME PRESSAVG GPRESSAVG
ENERGY: 0 7.2719 14.3050 4.8378 0.0000 -10998.9201 1463.8340 0.0000 0.0000 1731.1240 -7777.5473 297.1657 -9508.6713 -7777.5473 297.1657 238.7944 330.1913 30188.2081 238.7944 330.1913
ENERGY: 300000 6.7116 14.4485 4.3844 0.0000 -11050.7628 1458.8904 0.0000 0.0000 1757.8926 -7808.4353 301.7608 -9566.3279 -7752.4794 301.6384 56.1240 50.0081 29958.2998 -198.8827 -148.7215
ENERGY: 600000 5.6335 17.3479 7.3769 0.0000 -11018.5355 1425.0742 0.0000 0.0000 1722.7835 -7840.3196 295.7339 -9563.1031 -7770.5569 300.0958 -109.8982 -33.5451 29826.3303 -106.3632 -63.0934
ENERGY: 900000 3.6415 19.6002 6.7193 0.0000 -11046.4505 1474.7034 0.0000 0.0000 1783.6444 -7758.1417 306.1814 -9541.7861 -7768.7967 300.7889 251.5987 317.8026 29808.5677 -80.6994 -34.3154
ENERGY: 1200000 7.5383 19.8855 4.3882 0.0000 -11059.1963 1476.0740 0.0000 0.0000 1637.6728 -7913.6374 281.1238 -9551.3103 -7781.9546 298.9753 354.5533 425.8068 29746.6678 -48.7763 7.4764
ENERGY: 1500000 13.6155 17.1668 5.5760 0.0000 -10917.8782 1350.1465 0.0000 0.0000 1775.3747 -7755.9987 304.7618 -9531.3735 -7784.0949 299.8886 -718.1741 -710.4421 30180.5712 -123.4089 -64.1889
TCL: Running FEP window  18: Lambda1 0.1499999999999997 Lambda2 0.09999999999999969 [dLambda -0.05 ]
TCL: Setting parameter firsttimestep to 0
TCL: Setting parameter alchLambda to 0.1499999999999997
Info: NONBONDED TABLE R-SQUARED SPACING: 0.0625
Info: NONBONDED TABLE SIZE: 705 POINTS
TCL: Setting parameter alchLambda2 to 0.09999999999999969
Info: NONBONDED TABLE R-SQUARED SPACING: 0.0625
Info: NONBONDED TABLE SIZE: 705 POINTS
TCL: Running for 1500000 steps
ETITLE: TS BOND ANGLE DIHED IMPRP ELECT VDW BOUNDARY MISC KINETIC TOTAL TEMP POTENTIAL TOTALAVG TEMPAVG PRESSURE GPRESSURE VOLUME PRESSAVG GPRESSAVG
ENERGY: 0 13.6155 17.1668 5.5760 0.0000 -10917.8792 1349.0779 0.0000 0.0000 1774.5009 -7757.9421 304.6118 -9532.4429 -7757.9421 304.6118 -799.4093 -718.3398 30180.5712 -799.4093 -718.3398
ENERGY: 300000 9.1286 17.2146 5.4995 0.0000 -11056.5118 1491.4695 0.0000 0.0000 1734.2319 -7798.9676 297.6992 -9533.1995 -7734.2965 303.6485 491.8180 550.1761 29538.9011 169.9715 249.1232
ENERGY: 600000 8.2490 18.8265 5.9507 0.0000 -11000.3183 1408.3677 0.0000 0.0000 1746.3490 -7812.5753 299.7792 -9558.9243 -7756.2127 302.9706 -496.4836 -469.1760 30032.3981 -122.6497 -61.3881
ENERGY: 900000 11.4009 19.9124 5.2541 0.0000 -10989.1585 1439.0590 0.0000 0.0000 1764.4628 -7749.0694 302.8886 -9513.5322 -7771.0756 300.8565 248.3777 328.5795 30005.4821 -118.0483 -48.0725
ENERGY: 1200000 9.3010 22.2567 4.4182 0.0000 -11045.2845 1416.9276 0.0000 0.0000 1733.2213 -7859.1597 297.5257 -9592.3810 -7784.1792 299.8967 -428.4834 -309.7970 29801.1337 -193.1507 -120.8721
ENERGY: 1500000 2.9756 21.6823 4.3966 0.0000 -11080.3754 1480.8877 0.0000 0.0000 1807.9708 -7762.4624 310.3572 -9570.4332 -7774.1096 301.5884 201.5528 245.1304 29934.0634 -119.6956 -54.3655
TCL: Running FEP window  19: Lambda1 0.09999999999999969 Lambda2 0.049999999999999684 [dLambda -0.05 ]
TCL: Setting parameter firsttimestep to 0
TCL: Setting parameter alchLambda to 0.09999999999999969
Info: NONBONDED TABLE R-SQUARED SPACING: 0.0625
Info: NONBONDED TABLE SIZE: 705 POINTS
TCL: Setting parameter alchLambda2 to 0.049999999999999684
Info: NONBONDED TABLE R-SQUARED SPACING: 0.0625
Info: NONBONDED TABLE SIZE: 705 POINTS
TCL: Running for 1500000 steps
ETITLE: TS BOND ANGLE DIHED IMPRP ELECT VDW BOUNDARY MISC KINETIC TOTAL TEMP POTENTIAL TOTALAVG TEMPAVG PRESSURE GPRESSURE VOLUME PRESSAVG GPRESSAVG
ENERGY: 0 2.9756 21.6823 4.3966 0.0000 -11080.3744 1480.1402 0.0000 0.0000 1807.1235 -7764.0562 310.2118 -9571.1797 -7764.0562 310.2118 148.7223 234.6189 29934.0634 148.7223 234.6189
ENERGY: 300000 6.1071 20.5686 5.8172 0.0000 -11053.1336 1442.9708 0.0000 0.0000 1763.6763 -7813.9937 302.7536 -9577.6699 -7794.1025 303.3657 -29.1634 54.6820 29724.4450 271.7154 344.3662
ENERGY: 600000 4.4992 15.2153 2.8046 0.0000 -10906.0212 1415.3162 0.0000 0.0000 1764.1177 -7704.0683 302.8294 -9468.1860 -7748.7541 304.3438 -168.3961 -98.6877 30137.8207 2.8810 74.9497
ENERGY: 900000 8.4623 14.2425 4.7882 0.0000 -10948.9903 1437.2810 0.0000 0.0000 1751.3884 -7732.8279 300.6443 -9484.2163 -7772.7053 302.6436 421.9262 445.2114 29299.5833 15.0880 79.4437
ENERGY: 1200000 7.5205 20.7718 5.5778 0.0000 -11036.6749 1431.1594 0.0000 0.0000 1729.4650 -7842.1804 296.8809 -9571.6454 -7769.3682 302.6728 -7.3467 109.4578 29315.7404 35.3942 103.9284
ENERGY: 1500000 3.5111 17.8980 6.8375 0.0000 -10916.5461 1368.6707 0.0000 0.0000 1743.8915 -7775.7372 299.3574 -9519.6287 -7773.2011 302.5928 -468.9130 -440.8980 29782.7680 -69.3043 -5.3769
TCL: Running FEP window  20: Lambda1 0.049999999999999684 Lambda2 0.0    [dLambda -0.049999999999999684]
TCL: Setting parameter firsttimestep to 0
TCL: Setting parameter alchLambda to 0.049999999999999684
Info: NONBONDED TABLE R-SQUARED SPACING: 0.0625
Info: NONBONDED TABLE SIZE: 705 POINTS
TCL: Setting parameter alchLambda2 to 0.0
Info: NONBONDED TABLE R-SQUARED SPACING: 0.0625
Info: NONBONDED TABLE SIZE: 705 POINTS
TCL: Running for 1500000 steps
ETITLE: TS BOND ANGLE DIHED IMPRP ELECT VDW BOUNDARY MISC KINETIC TOTAL TEMP POTENTIAL TOTALAVG TEMPAVG PRESSURE GPRESSURE VOLUME PRESSAVG GPRESSAVG
ENERGY: 0 3.5111 17.8980 6.8375 0.0000 -10916.5456 1368.4317 0.0000 0.0000 1743.0177 -7776.8496 299.2074 -9519.8672 -7776.8496 299.2074 -536.2557 -445.2735 29782.7680 -536.2557 -445.2735
ENERGY: 300000 9.1861 20.7213 3.7660 0.0000 -11048.0565 1527.2543 0.0000 0.0000 1744.8893 -7742.2393 299.5286 -9487.1286 -7754.1911 300.9313 679.6655 750.1912 29890.4885 342.0425 420.1740
ENERGY: 600000 11.1555 17.5877 5.6554 0.0000 -10910.1421 1366.1745 0.0000 0.0000 1825.2462 -7684.3227 313.3228 -9509.5689 -7756.0256 301.7896 -464.0167 -427.2330 29724.2397 268.0951 321.8540
ENERGY: 900000 6.2239 19.5878 2.9663 0.0000 -11074.4311 1535.4828 0.0000 0.0000 1766.7105 -7743.4598 303.2745 -9510.1703 -7767.1165 300.8563 885.1892 875.7906 29844.1952 364.9260 414.0163
ENERGY: 1200000 5.3627 20.4061 9.3023 0.0000 -10944.4940 1390.0781 0.0000 0.0000 1772.9337 -7746.4109 304.3428 -9519.3447 -7766.4795 300.5465 -82.4642 -68.9695 29466.0055 281.5963 331.3458
ENERGY: 1500000 8.4043 23.3310 3.2419 0.0000 -10958.9827 1398.1291 0.0000 0.0000 1740.7772 -7785.0991 298.8228 -9525.8763 -7784.2770 299.4285 -211.2102 -164.6272 29726.0618 211.5536 267.6203
TCL: Exiting due to exit command.
