Info: SIMULATION PARAMETERS:
Info: TIMESTEP               2
Info: NUMBER OF STEPS        0
Info: STEPS PER CYCLE        10
Info: PERIODIC CELL BASIS 1  30.7 0 0
Info: PERIODIC CELL BASIS 2  0 31.3958 0
Info: PERIODIC CELL BASIS 3  0 0 31.3467
Info: PERIODIC CELL CENTER   0 0 0
Info: WRAPPING WATERS AROUND PERIODIC BOUNDARIES ON OUTPUT.
Info: WRAPPING ALL CLUSTERS AROUND PERIODIC BOUNDARIES ON OUTPUT.
Info: FIRST LDB TIMESTEP     50
Info: LAST LDB TIMESTEP     -1
Info: HOM BACKGROUND SCALING 1
Info: PME BACKGROUND SCALING 1
Info: MIN ATOMS PER PATCH    40
Info: EMPTY PATCH LOAD       40 ATOMS
Info: VELOCITY FILE          mobley_4690963_equil.vel
Info: CENTER OF MASS MOVING INITIALLY? NO
Info: DIELECTRIC             1
Info: EXCLUDE                SCALED ONE-FOUR
Info: 1-4 ELECTROSTATICS SCALED BY 0.833333
Info: MODIFIED 1-4 VDW PARAMETERS WILL BE USED
Info: DCD FILENAME           mobley_4690963_prod.dcd
Info: DCD FREQUENCY          100000
Info: DCD FIRST STEP         100000
Info: DCD FILE WILL CONTAIN UNIT CELL DATA
Info: XST FILENAME           mobley_4690963_prod.xst
Info: XST FREQUENCY          100000
Info: NO VELOCITY DCD OUTPUT
Info: NO FORCE DCD OUTPUT
Info: OUTPUT FILENAME        mobley_4690963_prod
Info: BINARY OUTPUT FILES WILL BE USED
Info: RESTART FILENAME       mobley_4690963_prod.restart
Info: RESTART FREQUENCY      100000
Info: BINARY RESTART FILES WILL BE USED
Info: CUTOFF                 9
Info: PAIRLIST DISTANCE      11
Info: PAIRLIST SHRINK RATE   0.01
Info: PAIRLIST GROW RATE     0.01
Info: PAIRLIST TRIGGER       0.3
Info: PAIRLISTS PER CYCLE    2
Info: PAIRLISTS ENABLED
Info: MARGIN                 2
Info: HYDROGEN GROUP CUTOFF  2.5
Info: PATCH DIMENSION        15.5
Info: ENERGY OUTPUT STEPS    100000
Info: ENERGY EVALUATION STEPS    100000
Info: OUTPUT ENERGY PRECISION 4
Info: CROSSTERM ENERGY INCLUDED IN DIHEDRAL
Info: TIMING OUTPUT STEPS    1000000
Info: PRESSURE OUTPUT STEPS  100000
Info: ALCHEMICAL FEP ON
Info: FEP CURRENT LAMBDA VALUE     1
Info: FEP COMPARISON LAMBDA VALUE  0.95
Info: FEP INTRA-ALCHEMICAL NON-BONDED INTERACTIONS WILL BE RETAINED
Info: FEP INTRA-ALCHEMICAL BONDED INTERACTIONS WILL BE RETAINED
Info: FEP VDW SHIFTING COEFFICIENT 5
Info: FEP ELEC. ACTIVE FOR ANNIHILATED PARTICLES BETWEEN LAMBDA = 0 AND LAMBDA = 0.5
Info: FEP ELEC. ACTIVE FOR EXNIHILATED PARTICLES BETWEEN LAMBDA = 0.5 AND LAMBDA = 1
Info: FEP VDW ACTIVE FOR ANNIHILATED PARTICLES BETWEEN LAMBDA = 0 AND LAMBDA = 1
Info: FEP VDW ACTIVE FOR EXNIHILATED PARTICLES BETWEEN LAMBDA = 0 AND LAMBDA = 1
Info: FEP BOND ACTIVE FOR ANNIHILATED PARTICLES BETWEEN LAMBDA = 1 AND LAMBDA = 1
Info: FEP BOND ACTIVE FOR EXNIHILATED PARTICLES BETWEEN LAMBDA = 0 AND LAMBDA = 0
Info: LANGEVIN DYNAMICS ACTIVE
Info: LANGEVIN TEMPERATURE   300
Info: LANGEVIN USING BBK INTEGRATOR
Info: LANGEVIN DAMPING COEFFICIENT IS 1 INVERSE PS
Info: LANGEVIN DYNAMICS APPLIED TO HYDROGENS
Info: LANGEVIN PISTON PRESSURE CONTROL ACTIVE
Info:        TARGET PRESSURE IS 1.01325 BAR
Info:     OSCILLATION PERIOD IS 50 FS
Info:             DECAY TIME IS 25 FS
Info:     PISTON TEMPERATURE IS 300 K
Info:       PRESSURE CONTROL IS GROUP-BASED
Info:    INITIAL STRAIN RATE IS -0.000167812 -0.000167812 -0.000167812
Info:       CELL FLUCTUATION IS ISOTROPIC
Info: PARTICLE MESH EWALD (PME) ACTIVE
Info: PME TOLERANCE               1e-06
Info: PME EWALD COEFFICIENT       0.348832
Info: PME INTERPOLATION ORDER     4
Info: PME GRID DIMENSIONS         32 32 32
Info: PME MAXIMUM GRID SPACING    1
Info: PME CALCULATION WILL BE PERFORMED ON GPU
Info: FULL ELECTROSTATIC EVALUATION FREQUENCY      2
Info: USING VERLET I (r-RESPA) MTS SCHEME.
Info: C1 SPLITTING OF LONG RANGE ELECTROSTATICS
Info: PLACING ATOMS IN PATCHES BY HYDROGEN GROUPS
Info: RIGID BONDS TO HYDROGEN : ALL
Info:         ERROR TOLERANCE : 1e-08
Info:          MAX ITERATIONS : 100
Info: RIGID WATER USING SETTLE ALGORITHM
Info: RANDOM NUMBER SEED     1744005082
Info: USE HYDROGEN BONDS?    NO
Info: Using AMBER format force field!
Info: AMBER PARM FILE        mobley_4690963.prmtop
Info: COORDINATE PDB         mobley_4690963.pdb
Info: Exclusions will be read from PARM file!
Info: SCNB (VDW SCALING)     2
Info: USING ARITHMETIC MEAN TO COMBINE L-J SIGMA PARAMETERS
Info: BINARY COORDINATES     mobley_4690963_equil.coor
Info: SUMMARY OF PARAMETERS:
Info: 6 BONDS
Info: 7 ANGLES
Info:   7 HARMONIC
Info:   0 COSINE-BASED
Info: 8 DIHEDRAL
Info: 0 IMPROPER
Info: 0 CROSSTERM
Info: 0 VDW
Info: 21 VDW_PAIRS
Info: 0 NBTHOLE_PAIRS
Info: To read alchdata from file: mobley_4690963.pdb
Info: To read alchflag data from column: 5
Info: STRUCTURE SUMMARY:
Info: 2953 ATOMS
Info: 2952 BONDS
Info: 38 ANGLES
Info: 54 DIHEDRALS
Info: 0 IMPROPERS
Info: 0 CROSSTERMS
Info: 3029 EXCLUSIONS
Info: 2945 RIGID BONDS
Info: ALCH: 0 ATOMS TO DISAPPEAR IN FINAL STATE
Info: ALCH: 22 ATOMS TO APPEAR IN FINAL STATE
Info: 5914 DEGREES OF FREEDOM
Info: 985 HYDROGEN GROUPS
Info: 4 ATOMS IN LARGEST HYDROGEN GROUP
Info: 985 MIGRATION GROUPS
Info: 4 ATOMS IN LARGEST MIGRATION GROUP
Info: TOTAL MASS = 17719.8 amu
Info: TOTAL CHARGE = -0.000399999 e
Info: MASS DENSITY = 0.973905 g/cm^3
Info: ATOM DENSITY = 0.0977377 atoms/A^3
Info: ADDED 0 IMPLICIT EXCLUSIONS
Info: NONBONDED TABLE R-SQUARED SPACING: 0.0625
Info: NONBONDED TABLE SIZE: 705 POINTS
Info: REMOVING COM VELOCITY 0.0312778 0.00950948 0.135062
Info: Use 3D box decompostion in PME FFT.
Info: Updated CUDA force table with 4096 elements.
Info: Updated CUDA LJ table with 6 x 6 elements.
Info: Found 19 unique exclusion lists needing 56 bytes
TCL: Running for 1500000 steps
ETITLE: TS BOND ANGLE DIHED IMPRP ELECT VDW BOUNDARY MISC KINETIC TOTAL TEMP POTENTIAL TOTALAVG TEMPAVG PRESSURE GPRESSURE VOLUME PRESSAVG GPRESSAVG
ENERGY: 0 2.5846 8.0962 5.4953 0.0000 -10623.5296 1373.1876 0.0000 0.0000 1769.8868 -7464.2791 301.1997 -9234.1659 -7464.2791 301.1997 -434.2318 -346.7295 30213.5282 -434.2318 -346.7295
ENERGY: 300000 5.0695 9.6483 6.4032 0.0000 -10652.9668 1382.5481 0.0000 0.0000 1767.8936 -7481.4042 300.8605 -9249.2977 -7487.5014 299.2485 -159.0679 -104.0222 29940.2393 -128.0160 -52.0460
ENERGY: 600000 4.0874 10.5396 4.8155 0.0000 -10669.3485 1403.7121 0.0000 0.0000 1829.8241 -7416.3698 311.3999 -9246.1939 -7463.3310 300.8889 -266.7687 -221.6776 30726.0673 -85.4326 -13.7331
ENERGY: 900000 0.8784 11.1934 5.4897 0.0000 -10573.6011 1381.7036 0.0000 0.0000 1778.8346 -7395.5015 302.7224 -9174.3360 -7470.7993 300.3898 -45.2583 -29.9093 30054.3328 -97.8748 -32.4725
ENERGY: 1200000 1.1882 8.2549 5.5493 0.0000 -10630.0673 1413.8867 0.0000 0.0000 1717.4460 -7483.7422 292.2753 -9201.1882 -7474.0361 298.6266 -24.5602 26.2649 30381.6771 -89.3431 -28.9557
ENERGY: 1500000 0.6807 14.1973 6.4588 0.0000 -10705.5344 1426.8427 0.0000 0.0000 1711.8092 -7545.5457 291.3161 -9257.3549 -7484.7293 297.9711 -26.9567 -43.5427 30426.4050 -42.1192 18.7754
TCL: Running FEP window   2: Lambda1 0.95   Lambda2 0.8999999999999999 [dLambda -0.050000000000000044]
TCL: Setting parameter firsttimestep to 0
TCL: Setting parameter alchLambda to 0.95
Info: NONBONDED TABLE R-SQUARED SPACING: 0.0625
Info: NONBONDED TABLE SIZE: 705 POINTS
TCL: Setting parameter alchLambda2 to 0.8999999999999999
Info: NONBONDED TABLE R-SQUARED SPACING: 0.0625
Info: NONBONDED TABLE SIZE: 705 POINTS
TCL: Running for 1500000 steps
ETITLE: TS BOND ANGLE DIHED IMPRP ELECT VDW BOUNDARY MISC KINETIC TOTAL TEMP POTENTIAL TOTALAVG TEMPAVG PRESSURE GPRESSURE VOLUME PRESSAVG GPRESSAVG
ENERGY: 0 0.6807 14.1973 6.4588 0.0000 -10704.2951 1427.1582 0.0000 0.0000 1710.9526 -7544.8474 291.1703 -9255.8001 -7544.8474 291.1703 -141.6280 -52.1841 30426.4050 -141.6280 -52.1841
ENERGY: 300000 2.7913 8.2851 5.1227 0.0000 -10713.7720 1486.0934 0.0000 0.0000 1720.9236 -7490.5559 292.8671 -9211.4795 -7462.6233 299.6287 598.2907 674.6591 30281.2333 152.9593 247.2726
ENERGY: 600000 1.2073 7.6394 4.1064 0.0000 -10608.1340 1414.9393 0.0000 0.0000 1800.5061 -7379.7355 306.4105 -9180.2416 -7438.4353 301.3399 -30.3154 87.9255 30403.1499 84.9505 163.4001
ENERGY: 900000 1.0149 10.8841 5.1399 0.0000 -10782.0852 1451.5958 0.0000 0.0000 1806.2379 -7507.2125 307.3860 -9313.4504 -7452.6057 302.6818 -251.1493 -163.6486 30776.8245 17.4225 98.6712
ENERGY: 1200000 1.5701 11.1905 4.2715 0.0000 -10680.2613 1402.6508 0.0000 0.0000 1764.5637 -7496.0148 300.2938 -9260.5785 -7452.5576 302.5390 -148.3608 -82.2161 30117.8029 -102.4059 -28.9171
ENERGY: 1500000 0.9933 12.1754 3.4595 0.0000 -10499.6624 1318.4810 0.0000 0.0000 1725.5494 -7439.0039 293.6544 -9164.5533 -7452.6086 301.7420 -866.8594 -741.9627 30380.9520 -141.0544 -63.3855
TCL: Running FEP window   3: Lambda1 0.8999999999999999 Lambda2 0.8499999999999999 [dLambda -0.050000000000000044]
TCL: Setting parameter firsttimestep to 0
TCL: Setting parameter alchLambda to 0.8999999999999999
Info: NONBONDED TABLE R-SQUARED SPACING: 0.0625
Info: NONBONDED TABLE SIZE: 705 POINTS
TCL: Setting parameter alchLambda2 to 0.8499999999999999
Info: NONBONDED TABLE R-SQUARED SPACING: 0.0625
Info: NONBONDED TABLE SIZE: 705 POINTS
TCL: Running for 1500000 steps
ETITLE: TS BOND ANGLE DIHED IMPRP ELECT VDW BOUNDARY MISC KINETIC TOTAL TEMP POTENTIAL TOTALAVG TEMPAVG PRESSURE GPRESSURE VOLUME PRESSAVG GPRESSAVG
ENERGY: 0 0.9933 12.1754 3.4595 0.0000 -10498.7760 1319.0533 0.0000 0.0000 1724.6666 -7438.4280 293.5041 -9163.0946 -7438.4280 293.5041 -840.1270 -749.3520 30380.9520 -840.1270 -749.3520
ENERGY: 300000 1.8697 8.3359 4.5330 0.0000 -10611.7817 1413.0648 0.0000 0.0000 1680.2527 -7503.7256 285.9458 -9183.9783 -7487.8642 291.9301 143.1882 125.4851 30119.9047 -265.9847 -221.5926
ENERGY: 600000 0.4512 15.4467 5.1427 0.0000 -10713.4876 1467.9587 0.0000 0.0000 1782.3410 -7442.1474 303.3192 -9224.4883 -7465.6450 294.9389 556.4759 662.3314 29791.0377 -138.7534 -75.5990
ENERGY: 900000 5.1041 9.6739 4.0648 0.0000 -10699.4475 1452.4534 0.0000 0.0000 1693.0449 -7535.1065 288.1227 -9228.1514 -7469.4608 295.4268 -319.6333 -208.6925 31324.7807 -141.0043 -65.9943
ENERGY: 1200000 1.9015 8.2577 5.0900 0.0000 -10632.0519 1409.4869 0.0000 0.0000 1744.3202 -7462.9956 296.8488 -9207.3158 -7473.8195 295.3776 -154.6462 -120.9534 30391.5561 -93.6944 -22.0228
ENERGY: 1500000 2.5680 9.6496 3.3141 0.0000 -10741.4105 1453.9478 0.0000 0.0000 1752.6948 -7519.2362 298.2740 -9271.9311 -7483.1262 296.1128 -222.6320 -110.1829 30516.1430 -52.7235 22.1620
TCL: Running FEP window   4: Lambda1 0.8499999999999999 Lambda2 0.7999999999999998 [dLambda -0.050000000000000044]
TCL: Setting parameter firsttimestep to 0
TCL: Setting parameter alchLambda to 0.8499999999999999
Info: NONBONDED TABLE R-SQUARED SPACING: 0.0625
Info: NONBONDED TABLE SIZE: 705 POINTS
TCL: Setting parameter alchLambda2 to 0.7999999999999998
Info: NONBONDED TABLE R-SQUARED SPACING: 0.0625
Info: NONBONDED TABLE SIZE: 705 POINTS
TCL: Running for 1500000 steps
ETITLE: TS BOND ANGLE DIHED IMPRP ELECT VDW BOUNDARY MISC KINETIC TOTAL TEMP POTENTIAL TOTALAVG TEMPAVG PRESSURE GPRESSURE VOLUME PRESSAVG GPRESSAVG
ENERGY: 0 2.5680 9.6496 3.3141 0.0000 -10739.9661 1453.9220 0.0000 0.0000 1751.8556 -7518.6569 298.1312 -9270.5125 -7518.6569 298.1312 -227.6549 -122.5087 30516.1430 -227.6549 -122.5087
ENERGY: 300000 1.8904 8.8306 3.9997 0.0000 -10610.7948 1416.8004 0.0000 0.0000 1781.8444 -7397.4293 303.2347 -9179.2737 -7454.8088 300.8369 33.1866 106.4224 30396.1696 187.1016 272.5590
ENERGY: 600000 2.4376 6.6249 5.1370 0.0000 -10734.4437 1462.0947 0.0000 0.0000 1788.7282 -7469.4213 304.4061 -9258.1495 -7451.6606 299.3443 371.7106 361.6733 30051.2282 193.3712 267.5482
ENERGY: 900000 0.2648 9.8693 5.5281 0.0000 -10736.0721 1482.1853 0.0000 0.0000 1742.8750 -7495.3496 296.6028 -9238.2246 -7466.7243 299.3525 453.5102 584.3587 30041.4743 98.8880 179.3738
ENERGY: 1200000 5.1439 13.3835 6.4724 0.0000 -10749.4887 1475.8225 0.0000 0.0000 1741.3210 -7507.3454 296.3384 -9248.6664 -7468.5269 298.9029 313.2281 332.4175 29832.3839 102.1813 181.2435
ENERGY: 1500000 1.6677 15.2427 5.2420 0.0000 -10816.1814 1473.4241 0.0000 0.0000 1788.0191 -7532.5858 304.2855 -9320.6049 -7470.5795 299.3064 232.9124 234.7486 30156.5420 -1.9985 68.3877
TCL: Running FEP window   5: Lambda1 0.7999999999999998 Lambda2 0.7499999999999998 [dLambda -0.050000000000000044]
TCL: Setting parameter firsttimestep to 0
TCL: Setting parameter alchLambda to 0.7999999999999998
Info: NONBONDED TABLE R-SQUARED SPACING: 0.0625
Info: NONBONDED TABLE SIZE: 705 POINTS
TCL: Setting parameter alchLambda2 to 0.7499999999999998
Info: NONBONDED TABLE R-SQUARED SPACING: 0.0625
Info: NONBONDED TABLE SIZE: 705 POINTS
TCL: Running for 1500000 steps
ETITLE: TS BOND ANGLE DIHED IMPRP ELECT VDW BOUNDARY MISC KINETIC TOTAL TEMP POTENTIAL TOTALAVG TEMPAVG PRESSURE GPRESSURE VOLUME PRESSAVG GPRESSAVG
ENERGY: 0 1.6677 15.2427 5.2420 0.0000 -10815.0250 1473.6005 0.0000 0.0000 1787.1443 -7532.1278 304.1366 -9319.2721 -7532.1278 304.1366 154.4499 224.5916 30156.5420 154.4499 224.5916
ENERGY: 300000 4.0612 12.2198 8.6073 0.0000 -10657.9597 1432.9104 0.0000 0.0000 1795.9783 -7404.1826 305.6400 -9200.1609 -7449.0615 301.2446 165.6354 295.6891 30138.6042 35.4949 111.3057
ENERGY: 600000 1.5282 6.3275 7.9584 0.0000 -10755.4483 1437.8650 0.0000 0.0000 1746.8879 -7554.8812 297.2858 -9301.7692 -7458.3402 299.4382 -210.9071 -83.4524 30166.5718 -195.6895 -108.3920
ENERGY: 900000 2.8037 7.7708 4.1566 0.0000 -10885.0216 1558.6729 0.0000 0.0000 1816.9721 -7494.6455 309.2127 -9311.6176 -7471.4733 299.7835 840.1326 865.8046 29967.3114 -63.9053 19.7159
ENERGY: 1200000 1.1031 10.2779 3.7776 0.0000 -10653.6206 1408.3378 0.0000 0.0000 1800.4788 -7429.6453 306.4059 -9230.1242 -7465.0526 300.4658 -373.5761 -261.4764 30571.0406 -133.6306 -51.0375
ENERGY: 1500000 2.1670 9.9592 5.8883 0.0000 -10559.7030 1383.5033 0.0000 0.0000 1748.3801 -7409.8051 297.5397 -9158.1851 -7464.4103 299.4933 16.4058 74.7885 30429.6950 -91.2968 -17.3020
TCL: Running FEP window   6: Lambda1 0.7499999999999998 Lambda2 0.6999999999999997 [dLambda -0.050000000000000044]
TCL: Setting parameter firsttimestep to 0
TCL: Setting parameter alchLambda to 0.7499999999999998
Info: NONBONDED TABLE R-SQUARED SPACING: 0.0625
Info: NONBONDED TABLE SIZE: 705 POINTS
TCL: Setting parameter alchLambda2 to 0.6999999999999997
Info: NONBONDED TABLE R-SQUARED SPACING: 0.0625
Info: NONBONDED TABLE SIZE: 705 POINTS
TCL: Running for 1500000 steps
ETITLE: TS BOND ANGLE DIHED IMPRP ELECT VDW BOUNDARY MISC KINETIC TOTAL TEMP POTENTIAL TOTALAVG TEMPAVG PRESSURE GPRESSURE VOLUME PRESSAVG GPRESSAVG
ENERGY: 0 2.1670 9.9592 5.8883 0.0000 -10558.9623 1383.7381 0.0000 0.0000 1747.4880 -7409.7217 297.3879 -9157.2097 -7409.7217 297.3879 -15.5384 67.8290 30429.6950 -15.5384 67.8290
ENERGY: 300000 0.8750 8.0644 7.5471 0.0000 -10732.6922 1465.4502 0.0000 0.0000 1733.7249 -7517.0307 295.0457 -9250.7556 -7461.3276 298.4256 110.9872 174.8451 30592.7299 -128.5939 -49.6583
ENERGY: 600000 4.6913 8.1748 4.1956 0.0000 -10790.7774 1497.0867 0.0000 0.0000 1752.7256 -7523.9034 298.2792 -9276.6291 -7484.1713 297.6916 581.3734 631.3745 30068.1772 -59.6391 28.3239
ENERGY: 900000 2.6350 8.9752 3.6439 0.0000 -10700.5746 1460.2241 0.0000 0.0000 1812.0716 -7413.0249 308.3787 -9225.0964 -7468.3067 299.6791 446.4413 424.8242 30176.5988 18.8580 95.9915
ENERGY: 1200000 1.7050 10.0980 6.9467 0.0000 -10534.4729 1301.3119 0.0000 0.0000 1817.2397 -7397.1716 309.2582 -9214.4113 -7455.7638 300.0964 -892.0659 -842.1752 29950.6807 -18.6444 42.2670
ENERGY: 1500000 1.1005 10.8060 6.4606 0.0000 -10795.4613 1516.1163 0.0000 0.0000 1732.6573 -7528.3207 294.8640 -9260.9780 -7456.0972 299.8294 747.4453 784.1883 29870.9710 -34.8947 25.9130
TCL: Running FEP window   7: Lambda1 0.6999999999999997 Lambda2 0.6499999999999997 [dLambda -0.050000000000000044]
TCL: Setting parameter firsttimestep to 0
TCL: Setting parameter alchLambda to 0.6999999999999997
Info: NONBONDED TABLE R-SQUARED SPACING: 0.0625
Info: NONBONDED TABLE SIZE: 705 POINTS
TCL: Setting parameter alchLambda2 to 0.6499999999999997
Info: NONBONDED TABLE R-SQUARED SPACING: 0.0625
Info: NONBONDED TABLE SIZE: 705 POINTS
TCL: Running for 1500000 steps
ETITLE: TS BOND ANGLE DIHED IMPRP ELECT VDW BOUNDARY MISC KINETIC TOTAL TEMP POTENTIAL TOTALAVG TEMPAVG PRESSURE GPRESSURE VOLUME PRESSAVG GPRESSAVG
ENERGY: 0 1.1005 10.8060 6.4606 0.0000 -10794.0534 1515.4875 0.0000 0.0000 1731.7736 -7528.4251 294.7136 -9260.1988 -7528.4251 294.7136 689.3083 769.2781 29870.9710 689.3083 769.2781
ENERGY: 300000 1.2465 8.4203 4.5003 0.0000 -10617.0290 1446.7359 0.0000 0.0000 1749.0308 -7407.0952 297.6504 -9156.1259 -7463.4126 296.7230 95.7442 135.0627 30775.0968 153.0436 189.7826
ENERGY: 600000 1.5229 10.9196 4.2769 0.0000 -10651.9783 1416.0430 0.0000 0.0000 1749.3296 -7469.8861 297.7013 -9219.2158 -7465.2821 298.0451 -175.8851 -114.8156 30271.2732 -118.5676 -76.2156
ENERGY: 900000 3.7919 11.6597 4.6208 0.0000 -10652.1410 1474.4002 0.0000 0.0000 1780.9857 -7376.6826 303.0885 -9157.6683 -7445.3762 298.6271 414.1793 520.9284 30486.4843 -36.6954 17.6458
ENERGY: 1200000 1.5490 13.6269 7.3075 0.0000 -10548.3189 1389.0237 0.0000 0.0000 1784.3746 -7352.4372 303.6652 -9136.8118 -7447.6267 297.9973 -275.3583 -202.3697 31125.3282 -68.5600 -7.9656
ENERGY: 1500000 1.7472 12.7131 5.0905 0.0000 -10772.7043 1482.1323 0.0000 0.0000 1768.9896 -7502.0316 301.0470 -9271.0212 -7450.8874 299.2492 315.1803 326.4999 29914.4052 38.5296 93.4291
TCL: Running FEP window   8: Lambda1 0.6499999999999997 Lambda2 0.5999999999999996 [dLambda -0.050000000000000044]
TCL: Setting parameter firsttimestep to 0
TCL: Setting parameter alchLambda to 0.6499999999999997
Info: NONBONDED TABLE R-SQUARED SPACING: 0.0625
Info: NONBONDED TABLE SIZE: 705 POINTS
TCL: Setting parameter alchLambda2 to 0.5999999999999996
Info: NONBONDED TABLE R-SQUARED SPACING: 0.0625
Info: NONBONDED TABLE SIZE: 705 POINTS
TCL: Running for 1500000 steps
ETITLE: TS BOND ANGLE DIHED IMPRP ELECT VDW BOUNDARY MISC KINETIC TOTAL TEMP POTENTIAL TOTALAVG TEMPAVG PRESSURE GPRESSURE VOLUME PRESSAVG GPRESSAVG
ENERGY: 0 1.7472 12.7131 5.0905 0.0000 -10772.4632 1482.9053 0.0000 0.0000 1768.1041 -7501.9030 300.8963 -9270.0072 -7501.9030 300.8963 247.8600 326.8876 29914.4052 247.8600 326.8876
ENERGY: 300000 2.8407 13.8365 6.1172 0.0000 -10722.5146 1426.3200 0.0000 0.0000 1695.8288 -7577.5713 288.5965 -9273.4001 -7491.1207 298.1101 -198.7882 -160.6996 29984.7699 -36.0110 19.7054
ENERGY: 600000 3.7514 5.8801 7.9114 0.0000 -10779.1243 1531.4869 0.0000 0.0000 1737.8032 -7492.2913 295.7397 -9230.0945 -7482.6016 299.0116 684.5414 698.0634 30492.6216 2.4673 54.1205
ENERGY: 900000 0.8474 7.1528 4.2786 0.0000 -10669.8313 1437.2256 0.0000 0.0000 1759.0263 -7461.3006 299.3515 -9220.3269 -7485.2385 300.2271 161.9591 228.7172 30226.7417 81.5963 132.9948
ENERGY: 1200000 3.2646 11.6869 6.6111 0.0000 -10725.8161 1516.1298 0.0000 0.0000 1782.4048 -7405.7189 303.3300 -9188.1237 -7484.5900 300.8962 866.4447 889.5828 30281.6804 15.2660 66.2561
ENERGY: 1500000 0.2368 9.6691 7.5503 0.0000 -10612.1243 1379.7693 0.0000 0.0000 1779.3919 -7435.5070 302.8173 -9214.8989 -7484.9216 300.4300 -348.1644 -272.0129 30496.2737 -23.9096 34.1971
TCL: Running FEP window   9: Lambda1 0.5999999999999996 Lambda2 0.5499999999999996 [dLambda -0.050000000000000044]
TCL: Setting parameter firsttimestep to 0
TCL: Setting parameter alchLambda to 0.5999999999999996
Info: NONBONDED TABLE R-SQUARED SPACING: 0.0625
Info: NONBONDED TABLE SIZE: 705 POINTS
TCL: Setting parameter alchLambda2 to 0.5499999999999996
Info: NONBONDED TABLE R-SQUARED SPACING: 0.0625
Info: NONBONDED TABLE SIZE: 705 POINTS
TCL: Running for 1500000 steps
ETITLE: TS BOND ANGLE DIHED IMPRP ELECT VDW BOUNDARY MISC KINETIC TOTAL TEMP POTENTIAL TOTALAVG TEMPAVG PRESSURE GPRESSURE VOLUME PRESSAVG GPRESSAVG
ENERGY: 0 0.2368 9.6691 7.5503 0.0000 -10611.3986 1379.1125 0.0000 0.0000 1778.4824 -7436.3476 302.6625 -9214.8300 -7436.3476 302.6625 -357.2210 -285.6539 30496.2737 -357.2210 -285.6539
ENERGY: 300000 3.9010 8.6314 5.7757 0.0000 -10707.9789 1448.0681 0.0000 0.0000 1757.8325 -7483.7702 299.1483 -9241.6027 -7435.1321 301.2474 20.0650 73.4942 30108.4286 -198.7024 -153.2607
ENERGY: 600000 1.2545 10.6554 7.2781 0.0000 -10553.7635 1360.4304 0.0000 0.0000 1777.9609 -7396.1842 302.5738 -9174.1451 -7438.9365 300.6261 -593.3985 -578.1626 30926.4376 -359.9803 -325.5374
ENERGY: 900000 1.6826 7.7151 9.4616 0.0000 -10741.5247 1466.1016 0.0000 0.0000 1768.8429 -7487.7210 301.0221 -9256.5639 -7449.1343 298.7730 305.3660 342.3700 30217.8327 -275.3597 -234.4959
ENERGY: 1200000 5.4314 7.0187 8.7710 0.0000 -10571.9778 1352.3016 0.0000 0.0000 1784.9435 -7413.5115 303.7621 -9198.4550 -7441.9232 300.4386 -600.7919 -539.1598 30377.7314 -200.5467 -150.8872
ENERGY: 1500000 6.1390 10.4953 4.6686 0.0000 -10669.8055 1374.8539 0.0000 0.0000 1787.7085 -7485.9402 304.2326 -9273.6487 -7447.0780 300.2697 -475.3555 -444.7175 30098.9626 -286.1449 -236.0483
TCL: Running FEP window  10: Lambda1 0.5499999999999996 Lambda2 0.4999999999999996 [dLambda -0.04999999999999999]
TCL: Setting parameter firsttimestep to 0
TCL: Setting parameter alchLambda to 0.5499999999999996
Info: NONBONDED TABLE R-SQUARED SPACING: 0.0625
Info: NONBONDED TABLE SIZE: 705 POINTS
TCL: Setting parameter alchLambda2 to 0.4999999999999996
Info: NONBONDED TABLE R-SQUARED SPACING: 0.0625
Info: NONBONDED TABLE SIZE: 705 POINTS
TCL: Running for 1500000 steps
ETITLE: TS BOND ANGLE DIHED IMPRP ELECT VDW BOUNDARY MISC KINETIC TOTAL TEMP POTENTIAL TOTALAVG TEMPAVG PRESSURE GPRESSURE VOLUME PRESSAVG GPRESSAVG
ENERGY: 0 6.1390 10.4953 4.6686 0.0000 -10669.1700 1375.0760 0.0000 0.0000 1786.8523 -7485.9388 304.0869 -9272.7911 -7485.9388 304.0869 -527.7977 -450.2016 30098.9626 -527.7977 -450.2016
ENERGY: 300000 1.8170 11.2551 6.3863 0.0000 -10695.3481 1399.1834 0.0000 0.0000 1769.0558 -7507.6504 301.0583 -9276.7062 -7472.7006 298.0657 -466.6203 -428.9011 30526.9047 -730.0635 -663.1773
ENERGY: 600000 0.7582 10.8206 8.3327 0.0000 -10671.2956 1418.5809 0.0000 0.0000 1786.7854 -7446.0178 304.0755 -9232.8031 -7481.1046 299.0126 -175.3606 -119.5414 30318.4943 -621.5828 -552.2039
ENERGY: 900000 1.6092 13.1504 3.8049 0.0000 -10702.9164 1512.5006 0.0000 0.0000 1716.0303 -7455.8210 292.0344 -9171.8513 -7466.6579 297.4397 564.0303 699.5976 30059.0882 -337.0207 -268.1111
ENERGY: 1200000 3.6180 5.4337 4.7140 0.0000 -10746.2481 1469.5540 0.0000 0.0000 1752.8027 -7510.1257 298.2923 -9262.9284 -7463.7452 298.2595 -67.2509 16.0518 30452.4442 -244.5646 -173.9366
ENERGY: 1500000 1.6977 10.1891 6.3701 0.0000 -10833.4925 1539.8081 0.0000 0.0000 1694.8329 -7580.5945 288.4270 -9275.4274 -7464.6299 298.9195 537.0298 587.1768 30398.1048 -188.4314 -118.4167
TCL: Running FEP window  11: Lambda1 0.4999999999999996 Lambda2 0.4499999999999996 [dLambda -0.04999999999999999]
TCL: Setting parameter firsttimestep to 0
TCL: Setting parameter alchLambda to 0.4999999999999996
Info: NONBONDED TABLE R-SQUARED SPACING: 0.0625
Info: NONBONDED TABLE SIZE: 705 POINTS
TCL: Setting parameter alchLambda2 to 0.4499999999999996
Info: NONBONDED TABLE R-SQUARED SPACING: 0.0625
Info: NONBONDED TABLE SIZE: 705 POINTS
TCL: Running for 1500000 steps
ETITLE: TS BOND ANGLE DIHED IMPRP ELECT VDW BOUNDARY MISC KINETIC TOTAL TEMP POTENTIAL TOTALAVG TEMPAVG PRESSURE GPRESSURE VOLUME PRESSAVG GPRESSAVG
ENERGY: 0 1.6977 10.1891 6.3701 0.0000 -10833.0685 1539.4606 0.0000 0.0000 1693.9730 -7581.3779 288.2807 -9275.3509 -7581.3779 288.2807 475.0398 577.3689 30398.1048 475.0398 577.3689
ENERGY: 300000 0.5924 9.4701 8.8680 0.0000 -10797.8770 1532.8668 0.0000 0.0000 1755.3829 -7490.6967 298.7314 -9246.0796 -7514.4144 295.4391 585.0111 647.1836 30252.5349 357.2213 411.9266
ENERGY: 600000 0.7612 10.1443 7.6905 0.0000 -10762.6952 1483.7694 0.0000 0.0000 1805.7686 -7454.5611 307.3061 -9260.3297 -7514.9634 296.6103 442.2753 535.0592 29915.5721 284.2332 350.9167
ENERGY: 900000 1.7150 8.6056 5.4400 0.0000 -10713.3051 1440.7397 0.0000 0.0000 1716.8695 -7539.9352 292.1772 -9256.8047 -7502.1336 297.0363 62.2615 169.4597 29872.0547 211.2686 277.1763
ENERGY: 1200000 2.7416 9.1129 7.2637 0.0000 -10582.6398 1374.2558 0.0000 0.0000 1768.4111 -7420.8548 300.9486 -9189.2659 -7494.9470 297.2599 -237.7853 -171.2213 30215.5534 52.3270 124.9750
ENERGY: 1500000 2.1912 11.0268 4.4527 0.0000 -10633.5578 1383.8136 0.0000 0.0000 1686.9551 -7545.1183 287.0864 -9232.0734 -7493.6717 296.8520 -355.5271 -339.6395 30291.3326 -29.1843 37.6745
TCL: Running FEP window  12: Lambda1 0.4499999999999996 Lambda2 0.39999999999999963 [dLambda -0.04999999999999999]
TCL: Setting parameter firsttimestep to 0
TCL: Setting parameter alchLambda to 0.4499999999999996
Info: NONBONDED TABLE R-SQUARED SPACING: 0.0625
Info: NONBONDED TABLE SIZE: 705 POINTS
TCL: Setting parameter alchLambda2 to 0.39999999999999963
Info: NONBONDED TABLE R-SQUARED SPACING: 0.0625
Info: NONBONDED TABLE SIZE: 705 POINTS
TCL: Running for 1500000 steps
ETITLE: TS BOND ANGLE DIHED IMPRP ELECT VDW BOUNDARY MISC KINETIC TOTAL TEMP POTENTIAL TOTALAVG TEMPAVG PRESSURE GPRESSURE VOLUME PRESSAVG GPRESSAVG
ENERGY: 0 2.1912 11.0268 4.4527 0.0000 -10633.5566 1383.8247 0.0000 0.0000 1686.1202 -7545.9410 286.9443 -9232.0612 -7545.9410 286.9443 -408.7415 -346.0031 30291.3326 -408.7415 -346.0031
ENERGY: 300000 1.5458 8.1603 5.4613 0.0000 -10754.2146 1473.9733 0.0000 0.0000 1794.2049 -7470.8690 305.3382 -9265.0739 -7468.0188 296.4880 199.8574 186.1235 30457.2343 -86.4089 -69.5727
ENERGY: 600000 1.6375 7.1495 7.3246 0.0000 -10738.8860 1466.4077 0.0000 0.0000 1782.1581 -7474.2086 303.2880 -9256.3667 -7480.0639 297.2476 -91.7588 -49.1682 30615.6400 -11.1979 15.2278
ENERGY: 900000 1.7089 8.5749 6.1597 0.0000 -10669.8616 1394.8861 0.0000 0.0000 1736.3898 -7522.1422 295.4992 -9258.5320 -7479.2205 298.1864 -574.5167 -497.0706 30019.4197 -230.5704 -198.8996
ENERGY: 1200000 4.3794 6.2132 5.9207 0.0000 -10605.9251 1467.7122 0.0000 0.0000 1787.0662 -7334.6335 304.1233 -9121.6997 -7469.1943 299.5313 614.0665 668.5979 30430.3164 -144.5604 -105.7605
ENERGY: 1500000 0.8043 13.7416 4.8847 0.0000 -10579.0685 1338.7227 0.0000 0.0000 1771.8678 -7449.0473 301.5368 -9220.9151 -7467.2447 298.9635 -749.2206 -672.9449 30465.9758 -124.0332 -78.5892
TCL: Running FEP window  13: Lambda1 0.39999999999999963 Lambda2 0.34999999999999964 [dLambda -0.04999999999999999]
TCL: Setting parameter firsttimestep to 0
TCL: Setting parameter alchLambda to 0.39999999999999963
Info: NONBONDED TABLE R-SQUARED SPACING: 0.0625
Info: NONBONDED TABLE SIZE: 705 POINTS
TCL: Setting parameter alchLambda2 to 0.34999999999999964
Info: NONBONDED TABLE R-SQUARED SPACING: 0.0625
Info: NONBONDED TABLE SIZE: 705 POINTS
TCL: Running for 1500000 steps
ETITLE: TS BOND ANGLE DIHED IMPRP ELECT VDW BOUNDARY MISC KINETIC TOTAL TEMP POTENTIAL TOTALAVG TEMPAVG PRESSURE GPRESSURE VOLUME PRESSAVG GPRESSAVG
ENERGY: 0 0.8043 13.7416 4.8847 0.0000 -10579.0678 1338.7229 0.0000 0.0000 1770.9749 -7449.9394 301.3849 -9220.9143 -7449.9394 301.3849 -780.2619 -680.9420 30465.9758 -780.2619 -680.9420
ENERGY: 300000 3.2650 12.8295 10.7843 0.0000 -10664.7178 1452.9497 0.0000 0.0000 1803.9976 -7380.8918 307.0047 -9184.8894 -7468.7112 300.0511 80.0020 210.1179 30240.9367 -338.9413 -287.9070
ENERGY: 600000 1.2500 7.2688 6.3096 0.0000 -10682.9256 1532.0270 0.0000 0.0000 1762.1804 -7373.8899 299.8882 -9136.0702 -7437.4424 300.7652 1197.7350 1186.2739 29966.3744 -8.7350 60.9104
ENERGY: 900000 0.9695 7.1761 3.7453 0.0000 -10642.8937 1425.9588 0.0000 0.0000 1814.1798 -7390.8643 308.7375 -9205.0441 -7435.9746 300.5897 -213.9540 -107.1838 30341.5170 -104.1247 -40.0862
ENERGY: 1200000 3.7013 12.8971 4.6346 0.0000 -10574.8096 1384.3028 0.0000 0.0000 1791.8878 -7377.3861 304.9438 -9169.2738 -7434.9024 301.4490 -548.2962 -472.3173 30913.6569 -159.2664 -94.5587
ENERGY: 1500000 3.9214 7.6762 8.3169 0.0000 -10650.5751 1392.4093 0.0000 0.0000 1738.1646 -7500.0867 295.8012 -9238.2513 -7443.7807 300.3307 -239.9808 -190.9069 29765.7690 -103.1168 -37.6683
TCL: Running FEP window  14: Lambda1 0.34999999999999964 Lambda2 0.29999999999999966 [dLambda -0.04999999999999999]
TCL: Setting parameter firsttimestep to 0
TCL: Setting parameter alchLambda to 0.34999999999999964
Info: NONBONDED TABLE R-SQUARED SPACING: 0.0625
Info: NONBONDED TABLE SIZE: 705 POINTS
TCL: Setting parameter alchLambda2 to 0.29999999999999966
Info: NONBONDED TABLE R-SQUARED SPACING: 0.0625
Info: NONBONDED TABLE SIZE: 705 POINTS
TCL: Running for 1500000 steps
ETITLE: TS BOND ANGLE DIHED IMPRP ELECT VDW BOUNDARY MISC KINETIC TOTAL TEMP POTENTIAL TOTALAVG TEMPAVG PRESSURE GPRESSURE VOLUME PRESSAVG GPRESSAVG
ENERGY: 0 3.9214 7.6762 8.3169 0.0000 -10650.5746 1392.3339 0.0000 0.0000 1737.2986 -7501.0275 295.6538 -9238.3261 -7501.0275 295.6538 -280.9298 -198.7604 29765.7690 -280.9298 -198.7604
ENERGY: 300000 2.5032 6.5680 4.5527 0.0000 -10732.0001 1446.5741 0.0000 0.0000 1773.0426 -7498.7595 301.7368 -9271.8021 -7442.4009 302.7030 189.6955 202.6039 30240.2356 20.3373 60.4904
ENERGY: 600000 3.6226 11.1037 6.5685 0.0000 -10846.1137 1538.5162 0.0000 0.0000 1728.0164 -7558.2863 294.0742 -9286.3026 -7453.9564 301.5010 752.1151 783.7811 29955.4361 150.5466 188.5412
ENERGY: 900000 1.2868 9.3315 3.8486 0.0000 -10577.9326 1397.0245 0.0000 0.0000 1839.7312 -7326.7099 313.0859 -9166.4411 -7434.1851 302.1471 -114.3553 -76.1073 30320.2262 65.1435 102.4609
ENERGY: 1200000 2.4305 8.8671 6.2279 0.0000 -10629.5002 1398.4634 0.0000 0.0000 1778.2103 -7435.3009 302.6162 -9213.5112 -7435.5158 302.8820 -312.8488 -282.1648 30564.4948 17.9034 64.6202
ENERGY: 1500000 1.8013 9.0328 5.8974 0.0000 -10701.5207 1492.5670 0.0000 0.0000 1799.7784 -7392.4439 306.2867 -9192.2223 -7433.8187 302.9929 805.3946 880.3788 29841.9841 6.6382 62.3622
TCL: Running FEP window  15: Lambda1 0.29999999999999966 Lambda2 0.24999999999999967 [dLambda -0.04999999999999999]
TCL: Setting parameter firsttimestep to 0
TCL: Setting parameter alchLambda to 0.29999999999999966
Info: NONBONDED TABLE R-SQUARED SPACING: 0.0625
Info: NONBONDED TABLE SIZE: 705 POINTS
TCL: Setting parameter alchLambda2 to 0.24999999999999967
Info: NONBONDED TABLE R-SQUARED SPACING: 0.0625
Info: NONBONDED TABLE SIZE: 705 POINTS
TCL: Running for 1500000 steps
ETITLE: TS BOND ANGLE DIHED IMPRP ELECT VDW BOUNDARY MISC KINETIC TOTAL TEMP POTENTIAL TOTALAVG TEMPAVG PRESSURE GPRESSURE VOLUME PRESSAVG GPRESSAVG
ENERGY: 0 1.8013 9.0328 5.8974 0.0000 -10701.5209 1492.7713 0.0000 0.0000 1798.8823 -7393.1359 306.1342 -9192.0182 -7393.1359 306.1342 800.6044 876.2519 29841.9841 800.6044 876.2519
ENERGY: 300000 2.6116 11.1129 6.6897 0.0000 -10754.9334 1426.0377 0.0000 0.0000 1724.9751 -7583.5064 293.5566 -9308.4816 -7506.1373 301.0479 -334.0084 -270.8821 29819.0083 242.9321 297.3976
ENERGY: 600000 1.8154 11.9083 4.9172 0.0000 -10660.5703 1403.7613 0.0000 0.0000 1769.9869 -7468.1812 301.2168 -9238.1681 -7467.2097 303.0158 -425.0025 -343.9021 30327.8991 175.3399 224.3779
ENERGY: 900000 0.8496 13.6052 9.9849 0.0000 -10737.4029 1426.0727 0.0000 0.0000 1791.8014 -7495.0891 304.9292 -9286.8906 -7453.2267 302.0872 -235.2429 -88.2366 30011.8809 131.8896 189.2473
ENERGY: 1200000 1.0876 9.6402 4.0608 0.0000 -10604.9139 1372.4277 0.0000 0.0000 1792.2109 -7425.4867 304.9988 -9217.6976 -7443.9598 302.3429 -588.9901 -549.3206 30545.6502 23.8284 74.9843
ENERGY: 1500000 0.7938 14.7165 4.2854 0.0000 -10510.6487 1334.2588 0.0000 0.0000 1737.0594 -7419.5349 295.6131 -9156.5943 -7451.4846 301.0429 -861.2905 -794.4844 30493.4446 -68.1722 -15.6453
TCL: Running FEP window  16: Lambda1 0.24999999999999967 Lambda2 0.19999999999999968 [dLambda -0.04999999999999999]
TCL: Setting parameter firsttimestep to 0
TCL: Setting parameter alchLambda to 0.24999999999999967
Info: NONBONDED TABLE R-SQUARED SPACING: 0.0625
Info: NONBONDED TABLE SIZE: 705 POINTS
TCL: Setting parameter alchLambda2 to 0.19999999999999968
Info: NONBONDED TABLE R-SQUARED SPACING: 0.0625
Info: NONBONDED TABLE SIZE: 705 POINTS
TCL: Running for 1500000 steps
ETITLE: TS BOND ANGLE DIHED IMPRP ELECT VDW BOUNDARY MISC KINETIC TOTAL TEMP POTENTIAL TOTALAVG TEMPAVG PRESSURE GPRESSURE VOLUME PRESSAVG GPRESSAVG
ENERGY: 0 0.7938 14.7165 4.2854 0.0000 -10510.6489 1334.1506 0.0000 0.0000 1736.1798 -7420.5228 295.4634 -9156.7025 -7420.5228 295.4634 -891.7418 -802.6058 30493.4446 -891.7418 -802.6058
ENERGY: 300000 2.6844 8.8858 6.0036 0.0000 -10719.6040 1486.7209 0.0000 0.0000 1773.9489 -7441.3604 301.8910 -9215.3093 -7474.0688 296.1425 474.4517 519.6413 29875.5501 -289.0247 -229.2130
ENERGY: 600000 2.3448 11.4218 4.4392 0.0000 -10624.2980 1376.5446 0.0000 0.0000 1755.2386 -7474.3090 298.7069 -9229.5476 -7468.5007 298.8347 -271.2495 -173.7793 29567.0689 -300.9859 -238.0116
ENERGY: 900000 1.9508 14.0376 6.2606 0.0000 -10575.9082 1358.5914 0.0000 0.0000 1758.1893 -7436.8784 299.2090 -9195.0677 -7473.3109 299.9033 -321.1319 -328.4337 29791.8219 -346.4549 -285.6641
ENERGY: 1200000 1.8146 9.1320 8.2863 0.0000 -10492.9077 1323.4135 0.0000 0.0000 1762.3144 -7387.9469 299.9110 -9150.2613 -7446.8398 301.4281 -892.7880 -878.1286 30791.7376 -299.8695 -241.0633
ENERGY: 1500000 3.7492 14.1820 5.8525 0.0000 -10607.1777 1417.9781 0.0000 0.0000 1827.6654 -7337.7505 311.0325 -9165.4160 -7443.8375 302.2226 -120.4393 -103.0710 30373.7456 -268.1585 -211.6275
TCL: Running FEP window  17: Lambda1 0.19999999999999968 Lambda2 0.1499999999999997 [dLambda -0.04999999999999999]
TCL: Setting parameter firsttimestep to 0
TCL: Setting parameter alchLambda to 0.19999999999999968
Info: NONBONDED TABLE R-SQUARED SPACING: 0.0625
Info: NONBONDED TABLE SIZE: 705 POINTS
TCL: Setting parameter alchLambda2 to 0.1499999999999997
Info: NONBONDED TABLE R-SQUARED SPACING: 0.0625
Info: NONBONDED TABLE SIZE: 705 POINTS
TCL: Running for 1500000 steps
ETITLE: TS BOND ANGLE DIHED IMPRP ELECT VDW BOUNDARY MISC KINETIC TOTAL TEMP POTENTIAL TOTALAVG TEMPAVG PRESSURE GPRESSURE VOLUME PRESSAVG GPRESSAVG
ENERGY: 0 3.7492 14.1820 5.8525 0.0000 -10607.1780 1417.4942 0.0000 0.0000 1826.7695 -7339.1306 310.8800 -9165.9001 -7339.1306 310.8800 -193.9786 -112.0652 30373.7456 -193.9786 -112.0652
ENERGY: 300000 0.5196 9.7904 6.9953 0.0000 -10657.9831 1418.4369 0.0000 0.0000 1721.4319 -7500.8090 292.9536 -9222.2409 -7427.1867 302.8451 -321.6043 -188.6930 30333.7200 -75.5180 7.1894
ENERGY: 600000 3.3017 12.6929 5.2692 0.0000 -10741.6571 1418.2234 0.0000 0.0000 1711.7809 -7590.3891 291.3112 -9302.1700 -7460.6019 300.0949 -271.5604 -214.0902 30097.3967 -53.9706 35.8702
ENERGY: 900000 1.8329 11.9633 6.0678 0.0000 -10533.3361 1338.5538 0.0000 0.0000 1757.0162 -7417.9022 299.0094 -9174.9184 -7446.8321 299.7306 -701.5702 -677.8072 30527.9260 -117.4072 -35.4330
ENERGY: 1200000 0.5583 9.4951 4.9379 0.0000 -10703.7876 1423.2640 0.0000 0.0000 1791.8114 -7473.7209 304.9308 -9265.5324 -7442.6689 299.9978 149.8563 173.1093 29664.4545 -85.5976 -10.8929
ENERGY: 1500000 1.9614 8.0229 5.4101 0.0000 -10823.5376 1529.9280 0.0000 0.0000 1729.5097 -7548.7055 294.3283 -9278.2152 -7444.7430 300.0850 425.6215 464.5010 30308.0760 -41.5494 29.7532
TCL: Running FEP window  18: Lambda1 0.1499999999999997 Lambda2 0.09999999999999969 [dLambda -0.05 ]
TCL: Setting parameter firsttimestep to 0
TCL: Setting parameter alchLambda to 0.1499999999999997
Info: NONBONDED TABLE R-SQUARED SPACING: 0.0625
Info: NONBONDED TABLE SIZE: 705 POINTS
TCL: Setting parameter alchLambda2 to 0.09999999999999969
Info: NONBONDED TABLE R-SQUARED SPACING: 0.0625
Info: NONBONDED TABLE SIZE: 705 POINTS
TCL: Running for 1500000 steps
ETITLE: TS BOND ANGLE DIHED IMPRP ELECT VDW BOUNDARY MISC KINETIC TOTAL TEMP POTENTIAL TOTALAVG TEMPAVG PRESSURE GPRESSURE VOLUME PRESSAVG GPRESSAVG
ENERGY: 0 1.9614 8.0229 5.4101 0.0000 -10823.5379 1529.5661 0.0000 0.0000 1728.6356 -7549.9418 294.1796 -9278.5774 -7549.9418 294.1796 369.0439 459.3780 30308.0760 369.0439 459.3780
ENERGY: 300000 2.4188 10.4062 7.9956 0.0000 -10820.3730 1546.8405 0.0000 0.0000 1754.0843 -7498.6277 298.5104 -9252.7120 -7474.9214 295.5884 810.6653 863.8603 29743.4817 87.9805 172.8178
ENERGY: 600000 3.3216 10.0235 5.4665 0.0000 -10660.7280 1399.1637 0.0000 0.0000 1810.2850 -7432.4677 308.0747 -9242.7527 -7450.5851 297.4786 -337.4600 -257.3557 29987.1481 -142.7697 -66.2180
ENERGY: 900000 1.2417 12.4070 5.2126 0.0000 -10570.3036 1435.3010 0.0000 0.0000 1731.7210 -7384.4203 294.7046 -9116.1413 -7436.5805 297.3944 175.5433 215.5534 30483.5801 -70.3779 1.5801
ENERGY: 1200000 3.9590 16.1894 5.2187 0.0000 -10693.3037 1481.5980 0.0000 0.0000 1774.5241 -7411.8145 301.9889 -9186.3386 -7438.7192 298.2159 401.8293 457.5187 30084.3650 -34.7510 34.1181
ENERGY: 1500000 1.2166 8.3444 6.8344 0.0000 -10679.9002 1429.6953 0.0000 0.0000 1735.0581 -7498.7515 295.2726 -9233.8096 -7446.8509 297.1832 -11.4779 -19.7437 30284.5869 -34.7085 24.5900
TCL: Running FEP window  19: Lambda1 0.09999999999999969 Lambda2 0.049999999999999684 [dLambda -0.05 ]
TCL: Setting parameter firsttimestep to 0
TCL: Setting parameter alchLambda to 0.09999999999999969
Info: NONBONDED TABLE R-SQUARED SPACING: 0.0625
Info: NONBONDED TABLE SIZE: 705 POINTS
TCL: Setting parameter alchLambda2 to 0.049999999999999684
Info: NONBONDED TABLE R-SQUARED SPACING: 0.0625
Info: NONBONDED TABLE SIZE: 705 POINTS
TCL: Running for 1500000 steps
ETITLE: TS BOND ANGLE DIHED IMPRP ELECT VDW BOUNDARY MISC KINETIC TOTAL TEMP POTENTIAL TOTALAVG TEMPAVG PRESSURE GPRESSURE VOLUME PRESSAVG GPRESSAVG
ENERGY: 0 1.2166 8.3444 6.8344 0.0000 -10679.9007 1429.8021 0.0000 0.0000 1734.1795 -7499.5237 295.1230 -9233.7032 -7499.5237 295.1230 -116.9090 -23.4015 30284.5869 -116.9090 -23.4015
ENERGY: 300000 3.2935 8.3445 7.0255 0.0000 -10732.0168 1460.2510 0.0000 0.0000 1741.7492 -7511.3531 296.4113 -9253.1023 -7469.1520 298.4273 144.9983 266.0848 29596.5339 239.9403 328.7081
ENERGY: 600000 1.9680 7.2213 4.4461 0.0000 -10600.7193 1416.9301 0.0000 0.0000 1741.0251 -7429.1287 296.2880 -9170.1538 -7473.6267 296.3312 -170.0530 -96.0450 30411.8464 -121.6386 -36.6347
ENERGY: 900000 2.7339 10.0533 4.7366 0.0000 -10630.9097 1431.2553 0.0000 0.0000 1744.4068 -7437.7238 296.8635 -9182.1306 -7462.8588 296.9814 -285.5939 -236.0861 30843.3240 -205.3228 -132.2757
ENERGY: 1200000 3.2674 9.3066 4.6305 0.0000 -10656.7179 1435.8677 0.0000 0.0000 1730.6260 -7473.0198 294.5183 -9203.6457 -7455.0707 296.9545 -170.8627 -117.2716 30316.2399 -186.8300 -117.2653
ENERGY: 1500000 0.6597 11.2053 3.5051 0.0000 -10650.2789 1370.4502 0.0000 0.0000 1809.4041 -7455.0545 307.9248 -9264.4586 -7451.6135 298.5988 -543.5520 -490.9538 29928.8860 -216.1145 -149.1363
TCL: Running FEP window  20: Lambda1 0.049999999999999684 Lambda2 0.0    [dLambda -0.049999999999999684]
TCL: Setting parameter firsttimestep to 0
TCL: Setting parameter alchLambda to 0.049999999999999684
Info: NONBONDED TABLE R-SQUARED SPACING: 0.0625
Info: NONBONDED TABLE SIZE: 705 POINTS
TCL: Setting parameter alchLambda2 to 0.0
Info: NONBONDED TABLE R-SQUARED SPACING: 0.0625
Info: NONBONDED TABLE SIZE: 705 POINTS
TCL: Running for 1500000 steps
ETITLE: TS BOND ANGLE DIHED IMPRP ELECT VDW BOUNDARY MISC KINETIC TOTAL TEMP POTENTIAL TOTALAVG TEMPAVG PRESSURE GPRESSURE VOLUME PRESSAVG GPRESSAVG
ENERGY: 0 0.6597 11.2053 3.5051 0.0000 -10650.2781 1369.6626 0.0000 0.0000 1808.5093 -7456.7360 307.7725 -9265.2453 -7456.7360 307.7725 -587.6593 -493.3396 29928.8860 -587.6593 -493.3396
ENERGY: 300000 2.2186 7.3419 6.6623 0.0000 -10740.2365 1484.1531 0.0000 0.0000 1730.4187 -7509.4418 294.4830 -9239.8605 -7467.3636 298.7805 279.4668 401.0273 29960.8623 52.3243 119.1357
ENERGY: 600000 4.4646 12.7965 6.9300 0.0000 -10603.8731 1401.9054 0.0000 0.0000 1753.9627 -7423.8138 298.4897 -9177.7765 -7441.5329 300.2774 -725.8730 -634.7621 31016.7234 -107.1941 -54.6655
ENERGY: 900000 1.7374 10.3437 5.0987 0.0000 -10898.2385 1563.9831 0.0000 0.0000 1774.3726 -7542.7030 301.9631 -9317.0756 -7446.9892 300.9024 539.7815 599.4660 30308.4732 -60.8171 0.0978
ENERGY: 1200000 2.2311 13.8642 5.3070 0.0000 -10753.6209 1473.8350 0.0000 0.0000 1755.5792 -7502.8044 298.7649 -9258.3837 -7448.2594 301.7016 57.9489 183.3423 30152.7539 -48.7226 19.2721
ENERGY: 1500000 2.6108 9.6561 6.2231 0.0000 -10549.4140 1347.8764 0.0000 0.0000 1753.5207 -7429.5269 298.4145 -9183.0476 -7448.1516 301.2423 -727.5193 -667.6648 30434.4923 -76.5090 -15.1008
TCL: Exiting due to exit command.
