Info: SIMULATION PARAMETERS:
Info: TIMESTEP               2
Info: NUMBER OF STEPS        0
Info: STEPS PER CYCLE        10
Info: PERIODIC CELL BASIS 1  32.7698 0 0
Info: PERIODIC CELL BASIS 2  0 29.0007 0
Info: PERIODIC CELL BASIS 3  0 0 31.9456
Info: PERIODIC CELL CENTER   0 0 0
Info: WRAPPING WATERS AROUND PERIODIC BOUNDARIES ON OUTPUT.
Info: WRAPPING ALL CLUSTERS AROUND PERIODIC BOUNDARIES ON OUTPUT.
Info: FIRST LDB TIMESTEP     50
Info: LAST LDB TIMESTEP     -1
Info: HOM BACKGROUND SCALING 1
Info: PME BACKGROUND SCALING 1
Info: MIN ATOMS PER PATCH    40
Info: EMPTY PATCH LOAD       40 ATOMS
Info: VELOCITY FILE          mobley_5393242_equil.vel
Info: CENTER OF MASS MOVING INITIALLY? NO
Info: DIELECTRIC             1
Info: EXCLUDE                SCALED ONE-FOUR
Info: 1-4 ELECTROSTATICS SCALED BY 0.833333
Info: MODIFIED 1-4 VDW PARAMETERS WILL BE USED
Info: DCD FILENAME           mobley_5393242_prod.dcd
Info: DCD FREQUENCY          100000
Info: DCD FIRST STEP         100000
Info: DCD FILE WILL CONTAIN UNIT CELL DATA
Info: XST FILENAME           mobley_5393242_prod.xst
Info: XST FREQUENCY          100000
Info: NO VELOCITY DCD OUTPUT
Info: NO FORCE DCD OUTPUT
Info: OUTPUT FILENAME        mobley_5393242_prod
Info: BINARY OUTPUT FILES WILL BE USED
Info: RESTART FILENAME       mobley_5393242_prod.restart
Info: RESTART FREQUENCY      100000
Info: BINARY RESTART FILES WILL BE USED
Info: CUTOFF                 9
Info: PAIRLIST DISTANCE      11
Info: PAIRLIST SHRINK RATE   0.01
Info: PAIRLIST GROW RATE     0.01
Info: PAIRLIST TRIGGER       0.3
Info: PAIRLISTS PER CYCLE    2
Info: PAIRLISTS ENABLED
Info: MARGIN                 2
Info: HYDROGEN GROUP CUTOFF  2.5
Info: PATCH DIMENSION        15.5
Info: ENERGY OUTPUT STEPS    100000
Info: ENERGY EVALUATION STEPS    100000
Info: OUTPUT ENERGY PRECISION 4
Info: CROSSTERM ENERGY INCLUDED IN DIHEDRAL
Info: TIMING OUTPUT STEPS    1000000
Info: PRESSURE OUTPUT STEPS  100000
Info: ALCHEMICAL FEP ON
Info: FEP CURRENT LAMBDA VALUE     1
Info: FEP COMPARISON LAMBDA VALUE  0.95
Info: FEP INTRA-ALCHEMICAL NON-BONDED INTERACTIONS WILL BE RETAINED
Info: FEP INTRA-ALCHEMICAL BONDED INTERACTIONS WILL BE RETAINED
Info: FEP VDW SHIFTING COEFFICIENT 5
Info: FEP ELEC. ACTIVE FOR ANNIHILATED PARTICLES BETWEEN LAMBDA = 0 AND LAMBDA = 0.5
Info: FEP ELEC. ACTIVE FOR EXNIHILATED PARTICLES BETWEEN LAMBDA = 0.5 AND LAMBDA = 1
Info: FEP VDW ACTIVE FOR ANNIHILATED PARTICLES BETWEEN LAMBDA = 0 AND LAMBDA = 1
Info: FEP VDW ACTIVE FOR EXNIHILATED PARTICLES BETWEEN LAMBDA = 0 AND LAMBDA = 1
Info: FEP BOND ACTIVE FOR ANNIHILATED PARTICLES BETWEEN LAMBDA = 1 AND LAMBDA = 1
Info: FEP BOND ACTIVE FOR EXNIHILATED PARTICLES BETWEEN LAMBDA = 0 AND LAMBDA = 0
Info: LANGEVIN DYNAMICS ACTIVE
Info: LANGEVIN TEMPERATURE   300
Info: LANGEVIN USING BBK INTEGRATOR
Info: LANGEVIN DAMPING COEFFICIENT IS 1 INVERSE PS
Info: LANGEVIN DYNAMICS APPLIED TO HYDROGENS
Info: LANGEVIN PISTON PRESSURE CONTROL ACTIVE
Info:        TARGET PRESSURE IS 1.01325 BAR
Info:     OSCILLATION PERIOD IS 50 FS
Info:             DECAY TIME IS 25 FS
Info:     PISTON TEMPERATURE IS 300 K
Info:       PRESSURE CONTROL IS GROUP-BASED
Info:    INITIAL STRAIN RATE IS 9.67022e-05 9.67022e-05 9.67022e-05
Info:       CELL FLUCTUATION IS ISOTROPIC
Info: PARTICLE MESH EWALD (PME) ACTIVE
Info: PME TOLERANCE               1e-06
Info: PME EWALD COEFFICIENT       0.348832
Info: PME INTERPOLATION ORDER     4
Info: PME GRID DIMENSIONS         36 32 32
Info: PME MAXIMUM GRID SPACING    1
Info: PME CALCULATION WILL BE PERFORMED ON GPU
Info: FULL ELECTROSTATIC EVALUATION FREQUENCY      2
Info: USING VERLET I (r-RESPA) MTS SCHEME.
Info: C1 SPLITTING OF LONG RANGE ELECTROSTATICS
Info: PLACING ATOMS IN PATCHES BY HYDROGEN GROUPS
Info: RIGID BONDS TO HYDROGEN : ALL
Info:         ERROR TOLERANCE : 1e-08
Info:          MAX ITERATIONS : 100
Info: RIGID WATER USING SETTLE ALGORITHM
Info: RANDOM NUMBER SEED     1744090649
Info: USE HYDROGEN BONDS?    NO
Info: Using AMBER format force field!
Info: AMBER PARM FILE        mobley_5393242.prmtop
Info: COORDINATE PDB         mobley_5393242.pdb
Info: Exclusions will be read from PARM file!
Info: SCNB (VDW SCALING)     2
Info: USING ARITHMETIC MEAN TO COMBINE L-J SIGMA PARAMETERS
Info: BINARY COORDINATES     mobley_5393242_equil.coor
Info: SUMMARY OF PARAMETERS:
Info: 13 BONDS
Info: 22 ANGLES
Info:   22 HARMONIC
Info:   0 COSINE-BASED
Info: 16 DIHEDRAL
Info: 0 IMPROPER
Info: 0 CROSSTERM
Info: 0 VDW
Info: 66 VDW_PAIRS
Info: 0 NBTHOLE_PAIRS
Info: To read alchdata from file: mobley_5393242.pdb
Info: To read alchflag data from column: 5
Info: STRUCTURE SUMMARY:
Info: 2968 ATOMS
Info: 2968 BONDS
Info: 71 ANGLES
Info: 97 DIHEDRALS
Info: 0 IMPROPERS
Info: 0 CROSSTERMS
Info: 3117 EXCLUSIONS
Info: 2949 RIGID BONDS
Info: ALCH: 0 ATOMS TO DISAPPEAR IN FINAL STATE
Info: ALCH: 40 ATOMS TO APPEAR IN FINAL STATE
Info: 5955 DEGREES OF FREEDOM
Info: 995 HYDROGEN GROUPS
Info: 4 ATOMS IN LARGEST HYDROGEN GROUP
Info: 995 MIGRATION GROUPS
Info: 4 ATOMS IN LARGEST MIGRATION GROUP
Info: TOTAL MASS = 17888 amu
Info: TOTAL CHARGE = 0.000200048 e
Info: MASS DENSITY = 0.978423 g/cm^3
Info: ATOM DENSITY = 0.0977622 atoms/A^3
Info: ADDED 0 IMPLICIT EXCLUSIONS
Info: NONBONDED TABLE R-SQUARED SPACING: 0.0625
Info: NONBONDED TABLE SIZE: 705 POINTS
Info: REMOVING COM VELOCITY -0.0279397 -0.0215216 -0.0332075
Info: Use 3D box decompostion in PME FFT.
Info: Updated CUDA force table with 4096 elements.
Info: Updated CUDA LJ table with 11 x 11 elements.
Info: Found 43 unique exclusion lists needing 196 bytes
TCL: Running for 1500000 steps
ETITLE: TS BOND ANGLE DIHED IMPRP ELECT VDW BOUNDARY MISC KINETIC TOTAL TEMP POTENTIAL TOTALAVG TEMPAVG PRESSURE GPRESSURE VOLUME PRESSAVG GPRESSAVG
ENERGY: 0 3.2045 15.9872 22.9102 0.0000 -11069.3854 1497.4956 0.0000 0.0000 1759.0154 -7770.7724 297.2886 -9529.7879 -7770.7724 297.2886 529.3481 617.4940 30359.3970 529.3481 617.4940
ENERGY: 300000 3.7894 23.0138 16.8106 0.0000 -11007.7889 1452.2883 0.0000 0.0000 1778.1576 -7733.7293 300.5238 -9511.8869 -7721.5542 302.5051 108.9681 138.9537 30550.7605 53.1219 101.8056
ENERGY: 600000 3.9067 19.6976 15.7804 0.0000 -10861.7930 1306.9059 0.0000 0.0000 1815.2476 -7700.2547 306.7923 -9515.5023 -7722.6695 303.4791 -1001.3075 -889.2704 30768.9234 -156.6854 -104.7829
ENERGY: 900000 7.6950 16.5722 17.7194 0.0000 -10978.3447 1404.2959 0.0000 0.0000 1817.8612 -7714.2010 307.2340 -9532.0622 -7739.7665 300.5784 -509.1960 -445.6121 30715.7556 -229.5419 -176.8801
ENERGY: 1200000 4.4525 17.5551 18.3826 0.0000 -10822.4589 1360.5404 0.0000 0.0000 1785.0675 -7636.4608 301.6916 -9421.5284 -7727.0464 300.5705 -530.7546 -517.7795 30815.4739 -194.4837 -142.7332
ENERGY: 1500000 7.4679 21.3011 20.7499 0.0000 -11028.2156 1475.9322 0.0000 0.0000 1790.4639 -7712.3006 302.6037 -9502.7645 -7725.7778 299.6053 403.4206 365.9433 30883.4768 -170.7343 -119.9310
TCL: Running FEP window   2: Lambda1 0.95   Lambda2 0.8999999999999999 [dLambda -0.050000000000000044]
TCL: Setting parameter firsttimestep to 0
TCL: Setting parameter alchLambda to 0.95
Info: NONBONDED TABLE R-SQUARED SPACING: 0.0625
Info: NONBONDED TABLE SIZE: 705 POINTS
TCL: Setting parameter alchLambda2 to 0.8999999999999999
Info: NONBONDED TABLE R-SQUARED SPACING: 0.0625
Info: NONBONDED TABLE SIZE: 705 POINTS
TCL: Running for 1500000 steps
ETITLE: TS BOND ANGLE DIHED IMPRP ELECT VDW BOUNDARY MISC KINETIC TOTAL TEMP POTENTIAL TOTALAVG TEMPAVG PRESSURE GPRESSURE VOLUME PRESSAVG GPRESSAVG
ENERGY: 0 7.4679 21.3011 20.7499 0.0000 -11024.2029 1474.3131 0.0000 0.0000 1789.5890 -7710.7819 302.4558 -9500.3709 -7710.7819 302.4558 245.1394 325.5117 30883.4768 245.1394 325.5117
ENERGY: 300000 4.7284 24.6254 21.2855 0.0000 -10938.8616 1395.9582 0.0000 0.0000 1790.5514 -7701.7128 302.6184 -9492.2642 -7724.8898 298.3156 -59.9204 -20.0247 30380.1628 264.7789 326.0876
ENERGY: 600000 6.1543 23.1576 19.8716 0.0000 -10890.8937 1383.5992 0.0000 0.0000 1718.9045 -7739.2065 290.5095 -9458.1111 -7698.8903 298.1025 -262.7837 -264.4591 30370.8798 233.6706 277.8516
ENERGY: 900000 4.3402 18.1782 19.2534 0.0000 -10983.0185 1444.0853 0.0000 0.0000 1784.9310 -7712.2304 301.6686 -9497.1613 -7699.3940 298.9086 -286.7467 -187.7366 30671.8345 67.6288 118.7552
ENERGY: 1200000 5.4524 24.1160 17.7195 0.0000 -11196.2078 1571.9052 0.0000 0.0000 1777.9200 -7799.0948 300.4836 -9577.0147 -7708.0957 299.4431 798.9857 911.0566 30359.5639 174.2471 233.5673
ENERGY: 1500000 5.6367 25.3511 19.5761 0.0000 -10972.0195 1396.3938 0.0000 0.0000 1769.7763 -7755.2856 299.1073 -9525.0619 -7712.8242 299.3364 -618.8659 -561.6612 30609.2527 72.7343 135.4406
TCL: Running FEP window   3: Lambda1 0.8999999999999999 Lambda2 0.8499999999999999 [dLambda -0.050000000000000044]
TCL: Setting parameter firsttimestep to 0
TCL: Setting parameter alchLambda to 0.8999999999999999
Info: NONBONDED TABLE R-SQUARED SPACING: 0.0625
Info: NONBONDED TABLE SIZE: 705 POINTS
TCL: Setting parameter alchLambda2 to 0.8499999999999999
Info: NONBONDED TABLE R-SQUARED SPACING: 0.0625
Info: NONBONDED TABLE SIZE: 705 POINTS
TCL: Running for 1500000 steps
ETITLE: TS BOND ANGLE DIHED IMPRP ELECT VDW BOUNDARY MISC KINETIC TOTAL TEMP POTENTIAL TOTALAVG TEMPAVG PRESSURE GPRESSURE VOLUME PRESSAVG GPRESSAVG
ENERGY: 0 5.6367 25.3511 19.5761 0.0000 -10967.8731 1395.7985 0.0000 0.0000 1768.9366 -7752.5742 298.9654 -9521.5108 -7752.5742 298.9654 -670.8687 -586.2341 30609.2527 -670.8687 -586.2341
ENERGY: 300000 5.6752 19.5368 15.5555 0.0000 -10969.4073 1509.4118 0.0000 0.0000 1801.8942 -7617.3338 304.5355 -9419.2281 -7714.4310 300.0914 663.8324 678.1504 30890.5731 -68.9038 -16.7427
ENERGY: 600000 7.0337 14.1387 22.3709 0.0000 -11039.3597 1484.3832 0.0000 0.0000 1828.8859 -7682.5474 309.0973 -9511.4332 -7708.4995 301.4966 702.8747 758.1106 30249.6824 56.0915 107.0611
ENERGY: 900000 8.7329 19.8482 18.4401 0.0000 -10926.8624 1417.3655 0.0000 0.0000 1723.1356 -7739.3401 291.2246 -9462.4757 -7719.3733 299.4720 28.4644 39.0229 30336.6046 -65.9628 -18.6917
ENERGY: 1200000 5.2334 11.8715 17.9091 0.0000 -11111.9576 1506.1622 0.0000 0.0000 1848.0948 -7722.6865 312.3438 -9570.7814 -7724.5799 300.6879 587.0062 635.0149 30128.1767 -46.8563 -0.6454
ENERGY: 1500000 5.9870 24.0215 17.3513 0.0000 -10871.5320 1388.4648 0.0000 0.0000 1750.3021 -7685.4053 295.8160 -9435.7074 -7714.5134 300.6082 -290.0484 -270.6929 30879.3934 -26.6551 14.9882
TCL: Running FEP window   4: Lambda1 0.8499999999999999 Lambda2 0.7999999999999998 [dLambda -0.050000000000000044]
TCL: Setting parameter firsttimestep to 0
TCL: Setting parameter alchLambda to 0.8499999999999999
Info: NONBONDED TABLE R-SQUARED SPACING: 0.0625
Info: NONBONDED TABLE SIZE: 705 POINTS
TCL: Setting parameter alchLambda2 to 0.7999999999999998
Info: NONBONDED TABLE R-SQUARED SPACING: 0.0625
Info: NONBONDED TABLE SIZE: 705 POINTS
TCL: Running for 1500000 steps
ETITLE: TS BOND ANGLE DIHED IMPRP ELECT VDW BOUNDARY MISC KINETIC TOTAL TEMP POTENTIAL TOTALAVG TEMPAVG PRESSURE GPRESSURE VOLUME PRESSAVG GPRESSAVG
ENERGY: 0 5.9870 24.0216 17.3513 0.0000 -10869.2798 1388.3415 0.0000 0.0000 1749.4107 -7684.1678 295.6653 -9433.5785 -7684.1678 295.6653 -355.3131 -294.7667 30879.3934 -355.3131 -294.7667
ENERGY: 300000 16.2164 21.7579 21.0702 0.0000 -10832.4513 1406.3433 0.0000 0.0000 1817.2363 -7549.8272 307.1284 -9367.0635 -7664.2063 300.8737 376.3144 398.4620 30548.4825 74.0762 125.3609
ENERGY: 600000 4.9118 17.0562 20.6739 0.0000 -10912.6356 1398.6477 0.0000 0.0000 1808.3429 -7663.0031 305.6254 -9471.3460 -7675.4219 300.5076 -513.8659 -438.5277 30682.1725 86.9564 151.7755
ENERGY: 900000 9.1817 16.1470 19.3761 0.0000 -10835.4297 1393.4872 0.0000 0.0000 1784.4248 -7612.8131 301.5830 -9397.2378 -7670.6107 301.9158 -218.1937 -172.9874 30788.0253 10.1195 76.7677
ENERGY: 1200000 8.9779 25.1830 18.9824 0.0000 -10791.6491 1310.9605 0.0000 0.0000 1757.0572 -7670.4881 296.9576 -9427.5452 -7670.0829 301.4803 -929.7693 -924.2587 30543.8040 -9.6218 52.8270
ENERGY: 1500000 7.8065 15.9166 19.8820 0.0000 -10935.7879 1329.6314 0.0000 0.0000 1722.1253 -7840.4261 291.0539 -9562.5514 -7682.8716 300.4687 -971.3513 -972.4612 30544.3457 -126.6495 -69.6101
TCL: Running FEP window   5: Lambda1 0.7999999999999998 Lambda2 0.7499999999999998 [dLambda -0.050000000000000044]
TCL: Setting parameter firsttimestep to 0
TCL: Setting parameter alchLambda to 0.7999999999999998
Info: NONBONDED TABLE R-SQUARED SPACING: 0.0625
Info: NONBONDED TABLE SIZE: 705 POINTS
TCL: Setting parameter alchLambda2 to 0.7499999999999998
Info: NONBONDED TABLE R-SQUARED SPACING: 0.0625
Info: NONBONDED TABLE SIZE: 705 POINTS
TCL: Running for 1500000 steps
ETITLE: TS BOND ANGLE DIHED IMPRP ELECT VDW BOUNDARY MISC KINETIC TOTAL TEMP POTENTIAL TOTALAVG TEMPAVG PRESSURE GPRESSURE VOLUME PRESSAVG GPRESSAVG
ENERGY: 0 7.8065 15.9166 19.8820 0.0000 -10932.0754 1327.8807 0.0000 0.0000 1721.2460 -7839.3436 290.9053 -9560.5896 -7839.3436 290.9053 -1079.7708 -1006.9250 30544.3457 -1079.7708 -1006.9250
ENERGY: 300000 8.0108 25.1221 17.1949 0.0000 -10873.9598 1341.0451 0.0000 0.0000 1738.2895 -7744.2973 293.7858 -9482.5868 -7759.0424 296.0265 -1203.7976 -1138.7315 30959.6239 -337.0126 -279.8834
ENERGY: 600000 3.6908 18.5133 17.8939 0.0000 -11127.7760 1504.8469 0.0000 0.0000 1808.8521 -7773.9790 305.7114 -9582.8311 -7754.1750 300.0710 534.8169 590.9121 30138.2871 -78.7434 -15.4332
ENERGY: 900000 8.0095 20.1171 17.4070 0.0000 -10837.0378 1391.3121 0.0000 0.0000 1765.2891 -7634.9029 298.3489 -9400.1920 -7728.2959 299.3291 4.3249 48.4270 30373.9463 -43.8688 13.9238
ENERGY: 1200000 4.1946 23.4046 17.1792 0.0000 -11033.1631 1466.4908 0.0000 0.0000 1841.4822 -7680.4117 311.2262 -9521.8938 -7716.4159 300.7370 51.0854 181.1740 30432.5955 -22.3663 37.1020
ENERGY: 1500000 8.5301 17.9186 17.5493 0.0000 -11007.4102 1521.0372 0.0000 0.0000 1749.8293 -7692.5457 295.7361 -9442.3750 -7715.4189 299.1044 997.3781 1005.0953 30444.0880 98.5078 152.5057
TCL: Running FEP window   6: Lambda1 0.7499999999999998 Lambda2 0.6999999999999997 [dLambda -0.050000000000000044]
TCL: Setting parameter firsttimestep to 0
TCL: Setting parameter alchLambda to 0.7499999999999998
Info: NONBONDED TABLE R-SQUARED SPACING: 0.0625
Info: NONBONDED TABLE SIZE: 705 POINTS
TCL: Setting parameter alchLambda2 to 0.6999999999999997
Info: NONBONDED TABLE R-SQUARED SPACING: 0.0625
Info: NONBONDED TABLE SIZE: 705 POINTS
TCL: Running for 1500000 steps
ETITLE: TS BOND ANGLE DIHED IMPRP ELECT VDW BOUNDARY MISC KINETIC TOTAL TEMP POTENTIAL TOTALAVG TEMPAVG PRESSURE GPRESSURE VOLUME PRESSAVG GPRESSAVG
ENERGY: 0 8.5301 17.9186 17.5493 0.0000 -11004.0656 1520.5232 0.0000 0.0000 1748.9311 -7690.6133 295.5843 -9439.5443 -7690.6133 295.5843 917.0961 986.5737 30444.0880 917.0961 986.5737
ENERGY: 300000 8.4757 18.8388 24.9896 0.0000 -10898.7676 1338.2598 0.0000 0.0000 1834.9652 -7673.2385 310.1248 -9508.2037 -7691.1343 300.6226 -682.3138 -586.9950 30260.4928 48.4021 145.0568
ENERGY: 600000 7.6681 19.8308 24.4556 0.0000 -11003.0267 1508.5064 0.0000 0.0000 1790.3747 -7652.1912 302.5886 -9442.5659 -7658.9295 302.2804 737.3163 820.6176 30375.9758 103.2020 186.9862
ENERGY: 900000 7.1123 18.9693 22.2200 0.0000 -11156.9391 1533.9221 0.0000 0.0000 1795.9320 -7778.7834 303.5278 -9574.7154 -7668.7911 301.7385 638.6534 640.4044 30587.7689 55.6392 123.8569
ENERGY: 1200000 3.6990 22.8329 17.9645 0.0000 -11004.1223 1463.1777 0.0000 0.0000 1814.4697 -7681.9785 306.6608 -9496.4482 -7670.5751 301.3434 498.4280 547.5317 30214.2859 31.2576 98.2005
ENERGY: 1500000 9.2605 18.3975 22.1049 0.0000 -10935.4705 1430.1956 0.0000 0.0000 1732.2018 -7723.3102 292.7569 -9455.5120 -7681.8082 300.5686 -159.4934 -73.9735 30703.6032 40.2181 112.9359
TCL: Running FEP window   7: Lambda1 0.6999999999999997 Lambda2 0.6499999999999997 [dLambda -0.050000000000000044]
TCL: Setting parameter firsttimestep to 0
TCL: Setting parameter alchLambda to 0.6999999999999997
Info: NONBONDED TABLE R-SQUARED SPACING: 0.0625
Info: NONBONDED TABLE SIZE: 705 POINTS
TCL: Setting parameter alchLambda2 to 0.6499999999999997
Info: NONBONDED TABLE R-SQUARED SPACING: 0.0625
Info: NONBONDED TABLE SIZE: 705 POINTS
TCL: Running for 1500000 steps
ETITLE: TS BOND ANGLE DIHED IMPRP ELECT VDW BOUNDARY MISC KINETIC TOTAL TEMP POTENTIAL TOTALAVG TEMPAVG PRESSURE GPRESSURE VOLUME PRESSAVG GPRESSAVG
ENERGY: 0 9.2605 18.3975 22.1049 0.0000 -10934.0844 1431.2041 0.0000 0.0000 1731.3730 -7721.7443 292.6168 -9453.1173 -7721.7443 292.6168 -164.8743 -79.6154 30703.6032 -164.8743 -79.6154
ENERGY: 300000 7.1960 19.6158 19.1631 0.0000 -10912.4536 1469.0866 0.0000 0.0000 1906.3267 -7491.0654 322.1855 -9397.3921 -7652.2928 302.4851 922.8804 947.0161 30328.0289 -99.5116 -51.0353
ENERGY: 600000 5.7224 22.4459 18.0353 0.0000 -11040.7441 1500.8997 0.0000 0.0000 1754.7758 -7738.8650 296.5721 -9493.6408 -7683.4312 300.0059 275.2900 384.3855 30712.5042 20.1020 73.8811
ENERGY: 900000 8.5142 18.5813 23.8457 0.0000 -11004.6874 1496.1749 0.0000 0.0000 1802.1400 -7655.4313 304.5770 -9457.5713 -7660.2462 300.3056 384.7791 470.1477 30823.5208 -25.8727 29.5902
ENERGY: 1200000 6.3104 15.1019 18.6742 0.0000 -10840.1760 1359.6440 0.0000 0.0000 1773.1058 -7667.3397 299.6700 -9440.4455 -7666.4148 299.7847 -409.7275 -395.8280 30487.0603 -133.1083 -78.8956
ENERGY: 1500000 6.7274 17.0794 18.4760 0.0000 -11032.7155 1525.4603 0.0000 0.0000 1733.3174 -7731.6550 292.9454 -9464.9724 -7667.1164 300.1686 1001.0682 1099.1373 30163.5919 -76.3165 -20.1743
TCL: Running FEP window   8: Lambda1 0.6499999999999997 Lambda2 0.5999999999999996 [dLambda -0.050000000000000044]
TCL: Setting parameter firsttimestep to 0
TCL: Setting parameter alchLambda to 0.6499999999999997
Info: NONBONDED TABLE R-SQUARED SPACING: 0.0625
Info: NONBONDED TABLE SIZE: 705 POINTS
TCL: Setting parameter alchLambda2 to 0.5999999999999996
Info: NONBONDED TABLE R-SQUARED SPACING: 0.0625
Info: NONBONDED TABLE SIZE: 705 POINTS
TCL: Running for 1500000 steps
ETITLE: TS BOND ANGLE DIHED IMPRP ELECT VDW BOUNDARY MISC KINETIC TOTAL TEMP POTENTIAL TOTALAVG TEMPAVG PRESSURE GPRESSURE VOLUME PRESSAVG GPRESSAVG
ENERGY: 0 6.7274 17.0795 18.4760 0.0000 -11031.4281 1525.5158 0.0000 0.0000 1732.4497 -7731.1798 292.7988 -9463.6295 -7731.1798 292.7988 1003.4937 1085.4186 30163.5919 1003.4937 1085.4186
ENERGY: 300000 9.3509 24.1592 23.1414 0.0000 -11008.8826 1497.8689 0.0000 0.0000 1793.2445 -7661.1177 303.0736 -9454.3622 -7663.5552 300.3941 626.1458 660.3186 30606.6502 -3.4268 51.8539
ENERGY: 600000 7.7920 19.0508 16.7121 0.0000 -10868.6266 1376.1194 0.0000 0.0000 1734.8873 -7714.0651 293.2107 -9448.9523 -7682.9587 298.7383 -448.7015 -384.3121 30441.3833 -40.5394 9.1410
ENERGY: 900000 2.9606 19.2001 16.7915 0.0000 -10910.3219 1478.9534 0.0000 0.0000 1811.8209 -7580.5954 306.2132 -9392.4163 -7672.6034 300.4283 528.8256 563.0840 30715.4032 75.2187 118.9708
ENERGY: 1200000 5.7162 17.6102 20.7766 0.0000 -11037.1444 1455.3275 0.0000 0.0000 1765.9295 -7771.7842 298.4571 -9537.7138 -7681.4948 300.4504 -17.5994 83.6091 30335.2413 29.4190 72.8015
ENERGY: 1500000 9.6414 19.9042 18.9672 0.0000 -10949.3561 1383.1885 0.0000 0.0000 1752.0468 -7765.6080 296.1108 -9517.6547 -7683.4780 299.9180 -640.2183 -582.6449 30572.8244 -52.0976 -3.7040
TCL: Running FEP window   9: Lambda1 0.5999999999999996 Lambda2 0.5499999999999996 [dLambda -0.050000000000000044]
TCL: Setting parameter firsttimestep to 0
TCL: Setting parameter alchLambda to 0.5999999999999996
Info: NONBONDED TABLE R-SQUARED SPACING: 0.0625
Info: NONBONDED TABLE SIZE: 705 POINTS
TCL: Setting parameter alchLambda2 to 0.5499999999999996
Info: NONBONDED TABLE R-SQUARED SPACING: 0.0625
Info: NONBONDED TABLE SIZE: 705 POINTS
TCL: Running for 1500000 steps
ETITLE: TS BOND ANGLE DIHED IMPRP ELECT VDW BOUNDARY MISC KINETIC TOTAL TEMP POTENTIAL TOTALAVG TEMPAVG PRESSURE GPRESSURE VOLUME PRESSAVG GPRESSAVG
ENERGY: 0 9.6414 19.9042 18.9672 0.0000 -10947.7253 1383.5025 0.0000 0.0000 1751.1686 -7764.5413 295.9624 -9515.7100 -7764.5413 295.9624 -691.5642 -597.6675 30572.8244 -691.5642 -597.6675
ENERGY: 300000 6.5235 23.8679 17.6323 0.0000 -10903.9723 1425.8460 0.0000 0.0000 1779.1332 -7650.9694 300.6887 -9430.1026 -7729.6245 296.1690 -59.5952 2.2830 30654.8419 -27.4679 55.6306
ENERGY: 600000 8.8227 21.6698 17.7915 0.0000 -10827.0950 1382.7122 0.0000 0.0000 1767.7654 -7628.3333 298.7674 -9396.0987 -7709.2699 298.1509 -253.1561 -146.3687 30455.6635 -3.7155 59.4584
ENERGY: 900000 3.7003 12.6285 22.8828 0.0000 -10811.1822 1357.7252 0.0000 0.0000 1773.6132 -7640.6322 299.7558 -9414.2454 -7696.0615 298.7801 -422.5888 -419.1978 30534.7480 23.8910 84.5974
ENERGY: 1200000 4.8390 16.5769 22.7165 0.0000 -10875.2862 1407.2647 0.0000 0.0000 1771.9056 -7651.9836 299.4672 -9423.8891 -7683.0743 298.9263 -300.9785 -269.1617 30733.3063 11.6013 62.3061
ENERGY: 1500000 2.7900 15.4765 22.2185 0.0000 -10900.6948 1456.4696 0.0000 0.0000 1809.3876 -7594.3526 305.8019 -9403.7402 -7679.5171 298.6676 253.5889 362.7433 30870.2273 36.5767 97.5971
TCL: Running FEP window  10: Lambda1 0.5499999999999996 Lambda2 0.4999999999999996 [dLambda -0.04999999999999999]
TCL: Setting parameter firsttimestep to 0
TCL: Setting parameter alchLambda to 0.5499999999999996
Info: NONBONDED TABLE R-SQUARED SPACING: 0.0625
Info: NONBONDED TABLE SIZE: 705 POINTS
TCL: Setting parameter alchLambda2 to 0.4999999999999996
Info: NONBONDED TABLE R-SQUARED SPACING: 0.0625
Info: NONBONDED TABLE SIZE: 705 POINTS
TCL: Running for 1500000 steps
ETITLE: TS BOND ANGLE DIHED IMPRP ELECT VDW BOUNDARY MISC KINETIC TOTAL TEMP POTENTIAL TOTALAVG TEMPAVG PRESSURE GPRESSURE VOLUME PRESSAVG GPRESSAVG
ENERGY: 0 2.7900 15.4765 22.2185 0.0000 -10900.5069 1457.4110 0.0000 0.0000 1808.4518 -7594.1591 305.6438 -9402.6108 -7594.1591 305.6438 284.3130 355.4019 30870.2273 284.3130 355.4019
ENERGY: 300000 4.7538 18.3707 18.0168 0.0000 -10841.9013 1398.6370 0.0000 0.0000 1811.7559 -7590.3672 306.2022 -9402.1231 -7614.5105 302.9896 -157.3182 -91.4168 30660.4164 261.9068 312.4215
ENERGY: 600000 6.8938 17.7422 21.9088 0.0000 -10920.8536 1426.8963 0.0000 0.0000 1769.0342 -7678.3782 298.9819 -9447.4124 -7644.3877 302.3045 -102.4662 -63.7131 30640.2060 105.1028 176.6447
ENERGY: 900000 9.2634 18.4761 21.2764 0.0000 -11067.8443 1506.3381 0.0000 0.0000 1751.9803 -7760.5099 296.0996 -9512.4903 -7658.4932 301.4809 422.9260 484.8938 30606.1816 131.8683 200.5708
ENERGY: 1200000 4.8521 19.3363 20.2984 0.0000 -10892.5596 1393.3191 0.0000 0.0000 1752.4800 -7702.2737 296.1841 -9454.7537 -7665.5818 301.1113 -393.0842 -312.1205 30532.4403 95.4082 165.9250
ENERGY: 1500000 6.6942 20.9194 21.5597 0.0000 -10660.9531 1257.5231 0.0000 0.0000 1767.9257 -7586.3310 298.7945 -9354.2567 -7670.0543 300.6154 -1107.8179 -1075.7207 31123.8307 -42.7545 21.8020
TCL: Running FEP window  11: Lambda1 0.4999999999999996 Lambda2 0.4499999999999996 [dLambda -0.04999999999999999]
TCL: Setting parameter firsttimestep to 0
TCL: Setting parameter alchLambda to 0.4999999999999996
Info: NONBONDED TABLE R-SQUARED SPACING: 0.0625
Info: NONBONDED TABLE SIZE: 705 POINTS
TCL: Setting parameter alchLambda2 to 0.4499999999999996
Info: NONBONDED TABLE R-SQUARED SPACING: 0.0625
Info: NONBONDED TABLE SIZE: 705 POINTS
TCL: Running for 1500000 steps
ETITLE: TS BOND ANGLE DIHED IMPRP ELECT VDW BOUNDARY MISC KINETIC TOTAL TEMP POTENTIAL TOTALAVG TEMPAVG PRESSURE GPRESSURE VOLUME PRESSAVG GPRESSAVG
ENERGY: 0 6.6943 20.9194 21.5597 0.0000 -10660.2888 1258.5046 0.0000 0.0000 1766.9967 -7585.6141 298.6375 -9352.6108 -7585.6141 298.6375 -1168.7681 -1081.7219 31123.8307 -1168.7681 -1081.7219
ENERGY: 300000 5.6502 23.2932 25.1338 0.0000 -10967.2774 1466.9872 0.0000 0.0000 1787.5203 -7658.6926 302.1062 -9446.2129 -7637.1465 303.8925 236.0250 262.8927 30119.8344 -218.5455 -181.7969
ENERGY: 600000 9.2219 20.9413 16.7796 0.0000 -11002.3975 1467.9365 0.0000 0.0000 1730.5541 -7756.9641 292.4784 -9487.5182 -7651.8087 302.5294 259.2585 258.9138 30610.1248 5.7322 24.1238
ENERGY: 900000 5.1218 18.4028 22.3837 0.0000 -10855.9665 1419.4457 0.0000 0.0000 1817.1324 -7573.4801 307.1109 -9390.6125 -7645.5059 303.0116 15.2521 39.6427 30812.7624 3.5820 39.7650
ENERGY: 1200000 11.6131 17.2137 20.0994 0.0000 -10886.2328 1424.8914 0.0000 0.0000 1761.5066 -7650.9087 297.7096 -9412.4153 -7668.3587 300.6967 162.0529 186.1438 30522.9870 7.7858 45.1644
ENERGY: 1500000 9.0398 21.2359 15.2637 0.0000 -10894.1275 1426.9231 0.0000 0.0000 1777.1675 -7644.4975 300.3565 -9421.6650 -7664.6590 301.2063 133.9816 240.5891 30416.5598 -20.2698 24.9481
TCL: Running FEP window  12: Lambda1 0.4499999999999996 Lambda2 0.39999999999999963 [dLambda -0.04999999999999999]
TCL: Setting parameter firsttimestep to 0
TCL: Setting parameter alchLambda to 0.4499999999999996
Info: NONBONDED TABLE R-SQUARED SPACING: 0.0625
Info: NONBONDED TABLE SIZE: 705 POINTS
TCL: Setting parameter alchLambda2 to 0.39999999999999963
Info: NONBONDED TABLE R-SQUARED SPACING: 0.0625
Info: NONBONDED TABLE SIZE: 705 POINTS
TCL: Running for 1500000 steps
ETITLE: TS BOND ANGLE DIHED IMPRP ELECT VDW BOUNDARY MISC KINETIC TOTAL TEMP POTENTIAL TOTALAVG TEMPAVG PRESSURE GPRESSURE VOLUME PRESSAVG GPRESSAVG
ENERGY: 0 9.0398 21.2359 15.2637 0.0000 -10894.1275 1427.3013 0.0000 0.0000 1776.2345 -7645.0523 300.1988 -9421.2868 -7645.0523 300.1988 134.5226 228.8081 30416.5598 134.5226 228.8081
ENERGY: 300000 3.9635 25.2168 19.0002 0.0000 -10948.1609 1411.0449 0.0000 0.0000 1803.3984 -7685.5372 304.7897 -9488.9355 -7655.7471 303.6394 -11.6975 8.7048 30073.4566 2.1869 69.3634
ENERGY: 600000 5.4868 23.5305 17.0971 0.0000 -10939.8154 1428.4270 0.0000 0.0000 1765.5251 -7699.7490 298.3888 -9465.2740 -7660.5776 302.5839 -397.2667 -352.0746 30640.9387 -243.3915 -180.8045
ENERGY: 900000 7.3701 16.8924 24.3348 0.0000 -10902.7816 1451.5825 0.0000 0.0000 1734.9349 -7667.6669 293.2188 -9402.6018 -7668.2586 300.2938 190.6487 266.7461 30547.2640 -85.7158 -29.0974
ENERGY: 1200000 7.6283 20.4417 19.7298 0.0000 -10917.1214 1426.7940 0.0000 0.0000 1779.8360 -7662.6917 300.8075 -9442.5277 -7663.4978 300.6376 -477.4369 -395.0873 30874.6726 -158.1649 -91.2517
ENERGY: 1500000 5.4466 25.6986 19.8205 0.0000 -10917.3590 1440.4687 0.0000 0.0000 1783.5216 -7642.4030 301.4304 -9425.9247 -7657.4450 301.2065 -107.5776 -66.7312 30874.6941 -216.9520 -159.6831
TCL: Running FEP window  13: Lambda1 0.39999999999999963 Lambda2 0.34999999999999964 [dLambda -0.04999999999999999]
TCL: Setting parameter firsttimestep to 0
TCL: Setting parameter alchLambda to 0.39999999999999963
Info: NONBONDED TABLE R-SQUARED SPACING: 0.0625
Info: NONBONDED TABLE SIZE: 705 POINTS
TCL: Setting parameter alchLambda2 to 0.34999999999999964
Info: NONBONDED TABLE R-SQUARED SPACING: 0.0625
Info: NONBONDED TABLE SIZE: 705 POINTS
TCL: Running for 1500000 steps
ETITLE: TS BOND ANGLE DIHED IMPRP ELECT VDW BOUNDARY MISC KINETIC TOTAL TEMP POTENTIAL TOTALAVG TEMPAVG PRESSURE GPRESSURE VOLUME PRESSAVG GPRESSAVG
ENERGY: 0 5.4466 25.6986 19.8205 0.0000 -10917.3594 1440.1956 0.0000 0.0000 1782.6144 -7643.5837 301.2770 -9426.1981 -7643.5837 301.2770 -165.2780 -76.9675 30874.6941 -165.2780 -76.9675
ENERGY: 300000 7.6433 19.6702 18.1543 0.0000 -11033.0127 1475.6197 0.0000 0.0000 1772.5496 -7739.3757 299.5760 -9511.9253 -7688.5470 301.0019 -82.1444 12.8051 30540.5168 77.4882 116.6197
ENERGY: 600000 7.3464 17.0968 22.1186 0.0000 -10796.9098 1334.1813 0.0000 0.0000 1778.7518 -7637.4149 300.6242 -9416.1667 -7668.2245 302.3572 -890.9148 -839.9770 30721.5991 -43.1115 -3.5148
ENERGY: 900000 5.9238 26.1169 18.7598 0.0000 -11180.6270 1546.4974 0.0000 0.0000 1800.3121 -7783.0170 304.2681 -9583.3292 -7675.5785 303.6590 371.7684 394.5336 30266.9692 -18.8270 22.3796
ENERGY: 1200000 5.5725 22.9366 17.7242 0.0000 -10900.3087 1462.5146 0.0000 0.0000 1756.0430 -7635.5178 296.7862 -9391.5608 -7670.7454 302.6608 631.7702 660.5844 30107.3183 39.2001 74.7932
ENERGY: 1500000 3.5892 20.7427 19.6205 0.0000 -11002.0583 1456.3424 0.0000 0.0000 1797.0467 -7704.7169 303.7162 -9501.7636 -7675.7207 302.3543 33.1149 187.6665 30464.8472 15.7672 64.4987
TCL: Running FEP window  14: Lambda1 0.34999999999999964 Lambda2 0.29999999999999966 [dLambda -0.04999999999999999]
TCL: Setting parameter firsttimestep to 0
TCL: Setting parameter alchLambda to 0.34999999999999964
Info: NONBONDED TABLE R-SQUARED SPACING: 0.0625
Info: NONBONDED TABLE SIZE: 705 POINTS
TCL: Setting parameter alchLambda2 to 0.29999999999999966
Info: NONBONDED TABLE R-SQUARED SPACING: 0.0625
Info: NONBONDED TABLE SIZE: 705 POINTS
TCL: Running for 1500000 steps
ETITLE: TS BOND ANGLE DIHED IMPRP ELECT VDW BOUNDARY MISC KINETIC TOTAL TEMP POTENTIAL TOTALAVG TEMPAVG PRESSURE GPRESSURE VOLUME PRESSAVG GPRESSAVG
ENERGY: 0 3.5892 20.7426 19.6205 0.0000 -11002.0590 1457.3824 0.0000 0.0000 1796.1541 -7704.5701 303.5654 -9500.7242 -7704.5701 303.5654 96.0104 184.4729 30464.8472 96.0104 184.4729
ENERGY: 300000 6.3803 19.0979 19.9210 0.0000 -11064.8420 1490.3769 0.0000 0.0000 1792.1544 -7736.9114 302.8894 -9529.0658 -7694.9522 303.7352 493.7724 563.5045 30029.5686 224.9681 278.1080
ENERGY: 600000 4.7289 17.9183 23.9698 0.0000 -10822.0431 1365.5971 0.0000 0.0000 1799.4715 -7610.3575 304.1260 -9409.8289 -7682.7783 301.6530 -516.9077 -375.7482 30260.5229 -123.7556 -50.5301
ENERGY: 900000 5.7748 21.4817 22.5699 0.0000 -10836.3011 1406.6405 0.0000 0.0000 1733.7179 -7646.1164 293.0131 -9379.8343 -7680.6231 300.1780 -101.1227 56.2066 30545.3492 -18.4992 55.0393
ENERGY: 1200000 6.5296 16.0896 20.0977 0.0000 -10968.2743 1460.4060 0.0000 0.0000 1782.1751 -7682.9763 301.2028 -9465.1514 -7686.7798 300.6448 73.0180 130.7169 30693.5127 -62.3176 13.1860
ENERGY: 1500000 7.0778 22.9009 19.7861 0.0000 -11018.4069 1512.5324 0.0000 0.0000 1771.2035 -7684.9063 299.3485 -9456.1098 -7686.6503 301.1682 924.5397 928.6483 30173.5569 17.6799 85.9380
TCL: Running FEP window  15: Lambda1 0.29999999999999966 Lambda2 0.24999999999999967 [dLambda -0.04999999999999999]
TCL: Setting parameter firsttimestep to 0
TCL: Setting parameter alchLambda to 0.29999999999999966
Info: NONBONDED TABLE R-SQUARED SPACING: 0.0625
Info: NONBONDED TABLE SIZE: 705 POINTS
TCL: Setting parameter alchLambda2 to 0.24999999999999967
Info: NONBONDED TABLE R-SQUARED SPACING: 0.0625
Info: NONBONDED TABLE SIZE: 705 POINTS
TCL: Running for 1500000 steps
ETITLE: TS BOND ANGLE DIHED IMPRP ELECT VDW BOUNDARY MISC KINETIC TOTAL TEMP POTENTIAL TOTALAVG TEMPAVG PRESSURE GPRESSURE VOLUME PRESSAVG GPRESSAVG
ENERGY: 0 7.0778 22.9009 19.7861 0.0000 -11018.4067 1513.6534 0.0000 0.0000 1770.3190 -7684.6696 299.1990 -9454.9886 -7684.6696 299.1990 859.9596 926.5233 30173.5569 859.9596 926.5233
ENERGY: 300000 7.4322 21.6719 19.9182 0.0000 -11033.9086 1542.3362 0.0000 0.0000 1759.4321 -7683.1180 297.3590 -9442.5501 -7663.8255 300.5928 1209.3149 1262.5481 30230.1533 350.9464 420.6195
ENERGY: 600000 3.8245 19.4738 23.0811 0.0000 -11122.4712 1553.2072 0.0000 0.0000 1772.2707 -7750.6140 299.5289 -9522.8846 -7680.2821 300.0599 686.4128 793.8089 30193.0937 193.9501 264.4781
ENERGY: 900000 5.4788 17.1635 26.2910 0.0000 -10897.4585 1436.7756 0.0000 0.0000 1801.9443 -7609.8052 304.5440 -9411.7495 -7664.1688 301.2675 177.0200 197.7456 30689.8360 98.1642 162.8511
ENERGY: 1200000 13.8338 14.2213 29.4088 0.0000 -10995.0487 1425.5346 0.0000 0.0000 1782.9972 -7729.0530 301.3417 -9512.0503 -7678.3826 300.5334 -175.0120 -119.1950 30357.5732 -36.3749 23.6137
ENERGY: 1500000 3.8894 20.3747 20.6053 0.0000 -10958.2912 1418.7116 0.0000 0.0000 1834.8746 -7659.8358 310.1095 -9494.7103 -7677.9457 301.3085 -165.4438 -147.4437 30021.3164 -71.6567 -20.5058
TCL: Running FEP window  16: Lambda1 0.24999999999999967 Lambda2 0.19999999999999968 [dLambda -0.04999999999999999]
TCL: Setting parameter firsttimestep to 0
TCL: Setting parameter alchLambda to 0.24999999999999967
Info: NONBONDED TABLE R-SQUARED SPACING: 0.0625
Info: NONBONDED TABLE SIZE: 705 POINTS
TCL: Setting parameter alchLambda2 to 0.19999999999999968
Info: NONBONDED TABLE R-SQUARED SPACING: 0.0625
Info: NONBONDED TABLE SIZE: 705 POINTS
TCL: Running for 1500000 steps
ETITLE: TS BOND ANGLE DIHED IMPRP ELECT VDW BOUNDARY MISC KINETIC TOTAL TEMP POTENTIAL TOTALAVG TEMPAVG PRESSURE GPRESSURE VOLUME PRESSAVG GPRESSAVG
ENERGY: 0 3.8894 20.3747 20.6053 0.0000 -10958.2924 1418.4158 0.0000 0.0000 1833.9998 -7661.0074 309.9616 -9495.0072 -7661.0074 309.9616 -248.1653 -158.2188 30021.3164 -248.1653 -158.2188
ENERGY: 300000 5.0837 25.3157 23.2764 0.0000 -10842.8491 1338.6073 0.0000 0.0000 1760.0551 -7690.5108 297.4643 -9450.5659 -7642.0479 304.0282 -876.1574 -802.1994 30414.4297 -198.5568 -118.6333
ENERGY: 600000 4.9256 22.6303 18.6087 0.0000 -11030.0645 1477.0868 0.0000 0.0000 1763.8262 -7742.9869 298.1017 -9506.8131 -7662.0906 303.5984 -36.2128 -10.7106 30735.3955 -187.0150 -124.1875
ENERGY: 900000 4.5625 16.6179 20.3738 0.0000 -10940.5632 1445.3506 0.0000 0.0000 1830.7814 -7622.8771 309.4177 -9453.6586 -7665.0132 303.2151 0.4455 117.4984 30156.0491 -63.2539 11.1450
ENERGY: 1200000 5.0745 14.8585 20.2022 0.0000 -10919.8712 1447.0084 0.0000 0.0000 1733.3188 -7699.4086 292.9457 -9432.7275 -7669.0347 301.5779 71.8024 178.3563 30336.1819 -112.6292 -43.1313
ENERGY: 1500000 6.3404 19.0227 21.2695 0.0000 -10879.2513 1446.1612 0.0000 0.0000 1807.6189 -7578.8386 305.5030 -9386.4575 -7669.1159 301.2850 323.0721 377.0398 30707.6429 21.2750 90.4255
TCL: Running FEP window  17: Lambda1 0.19999999999999968 Lambda2 0.1499999999999997 [dLambda -0.04999999999999999]
TCL: Setting parameter firsttimestep to 0
TCL: Setting parameter alchLambda to 0.19999999999999968
Info: NONBONDED TABLE R-SQUARED SPACING: 0.0625
Info: NONBONDED TABLE SIZE: 705 POINTS
TCL: Setting parameter alchLambda2 to 0.1499999999999997
Info: NONBONDED TABLE R-SQUARED SPACING: 0.0625
Info: NONBONDED TABLE SIZE: 705 POINTS
TCL: Running for 1500000 steps
ETITLE: TS BOND ANGLE DIHED IMPRP ELECT VDW BOUNDARY MISC KINETIC TOTAL TEMP POTENTIAL TOTALAVG TEMPAVG PRESSURE GPRESSURE VOLUME PRESSAVG GPRESSAVG
ENERGY: 0 6.3404 19.0227 21.2695 0.0000 -10879.2513 1446.5388 0.0000 0.0000 1806.7406 -7579.3394 305.3546 -9386.0800 -7579.3394 305.3546 284.0546 371.6148 30707.6429 284.0546 371.6148
ENERGY: 300000 6.6116 18.3419 26.1721 0.0000 -10873.4502 1380.1561 0.0000 0.0000 1748.8663 -7693.3021 295.5733 -9442.1684 -7652.1041 302.0241 -847.8462 -748.6570 30526.7216 -206.8245 -121.7054
ENERGY: 600000 3.9250 11.7170 19.8850 0.0000 -11110.1620 1557.7202 0.0000 0.0000 1728.7546 -7788.1601 292.1743 -9516.9147 -7680.2950 299.1391 643.7321 711.1564 30105.6269 -63.7237 14.4504
ENERGY: 900000 10.0162 28.6615 20.4141 0.0000 -10867.8058 1367.1328 0.0000 0.0000 1772.9127 -7668.6684 299.6374 -9441.5811 -7674.8838 299.5821 -480.5321 -447.3168 30419.5129 -4.6430 60.5360
ENERGY: 1200000 5.3760 14.7460 20.8209 0.0000 -10843.7525 1376.6940 0.0000 0.0000 1759.5861 -7666.5294 297.3851 -9426.1155 -7676.7750 298.8892 -431.7517 -447.6250 30246.6436 -24.7902 32.6376
ENERGY: 1500000 4.8492 17.7698 22.0799 0.0000 -10960.4444 1437.4007 0.0000 0.0000 1781.7470 -7696.5977 301.1304 -9478.3447 -7685.2968 299.3756 -152.8755 -95.7747 30656.1402 31.9565 83.8315
TCL: Running FEP window  18: Lambda1 0.1499999999999997 Lambda2 0.09999999999999969 [dLambda -0.05 ]
TCL: Setting parameter firsttimestep to 0
TCL: Setting parameter alchLambda to 0.1499999999999997
Info: NONBONDED TABLE R-SQUARED SPACING: 0.0625
Info: NONBONDED TABLE SIZE: 705 POINTS
TCL: Setting parameter alchLambda2 to 0.09999999999999969
Info: NONBONDED TABLE R-SQUARED SPACING: 0.0625
Info: NONBONDED TABLE SIZE: 705 POINTS
TCL: Running for 1500000 steps
ETITLE: TS BOND ANGLE DIHED IMPRP ELECT VDW BOUNDARY MISC KINETIC TOTAL TEMP POTENTIAL TOTALAVG TEMPAVG PRESSURE GPRESSURE VOLUME PRESSAVG GPRESSAVG
ENERGY: 0 4.8492 17.7698 22.0799 0.0000 -10960.4455 1437.9583 0.0000 0.0000 1780.8530 -7696.9353 300.9793 -9477.7883 -7696.9353 300.9793 -192.5196 -101.1847 30656.1402 -192.5196 -101.1847
ENERGY: 300000 6.2173 16.6483 16.7418 0.0000 -10929.0601 1399.6640 0.0000 0.0000 1795.7805 -7694.0082 303.5022 -9489.7887 -7658.4381 302.7946 -434.0131 -368.3611 29948.2081 229.2490 291.0030
ENERGY: 600000 6.5339 17.7422 23.7545 0.0000 -10848.5130 1364.7193 0.0000 0.0000 1755.8973 -7679.8658 296.7616 -9435.7632 -7657.3373 301.0826 -490.2631 -474.3543 30345.1729 -89.4547 -27.6095
ENERGY: 900000 4.7122 22.0137 20.7206 0.0000 -10829.3699 1349.1493 0.0000 0.0000 1807.0216 -7625.7525 305.4021 -9432.7741 -7662.2140 300.7141 -835.9259 -758.4369 30576.6988 -216.3068 -146.7029
ENERGY: 1200000 6.7227 21.6972 17.5573 0.0000 -10927.5057 1447.0382 0.0000 0.0000 1799.9650 -7634.5253 304.2094 -9434.4903 -7656.6871 300.6402 -29.6333 61.7222 30428.3602 -96.9393 -24.0291
ENERGY: 1500000 7.3588 20.9408 19.1216 0.0000 -11152.7767 1637.5688 0.0000 0.0000 1748.9546 -7718.8321 295.5882 -9467.7867 -7666.6180 299.7730 1903.6792 1907.6782 29694.6230 51.1461 115.0006
TCL: Running FEP window  19: Lambda1 0.09999999999999969 Lambda2 0.049999999999999684 [dLambda -0.05 ]
TCL: Setting parameter firsttimestep to 0
TCL: Setting parameter alchLambda to 0.09999999999999969
Info: NONBONDED TABLE R-SQUARED SPACING: 0.0625
Info: NONBONDED TABLE SIZE: 705 POINTS
TCL: Setting parameter alchLambda2 to 0.049999999999999684
Info: NONBONDED TABLE R-SQUARED SPACING: 0.0625
Info: NONBONDED TABLE SIZE: 705 POINTS
TCL: Running for 1500000 steps
ETITLE: TS BOND ANGLE DIHED IMPRP ELECT VDW BOUNDARY MISC KINETIC TOTAL TEMP POTENTIAL TOTALAVG TEMPAVG PRESSURE GPRESSURE VOLUME PRESSAVG GPRESSAVG
ENERGY: 0 7.3588 20.9408 19.1216 0.0000 -11152.7774 1637.3734 0.0000 0.0000 1748.0691 -7719.9137 295.4386 -9467.9828 -7719.9137 295.4386 1823.9269 1900.0132 29694.6230 1823.9269 1900.0132
ENERGY: 300000 8.3950 17.5807 19.6396 0.0000 -10941.4799 1498.6367 0.0000 0.0000 1766.6900 -7630.5379 298.5857 -9397.2279 -7687.2308 299.5694 780.8950 877.8658 29994.2214 594.8184 656.4943
ENERGY: 600000 7.8266 21.6027 24.5047 0.0000 -10894.7320 1378.4344 0.0000 0.0000 1806.4370 -7655.9266 305.3033 -9462.3636 -7667.8945 301.5696 -454.1757 -357.9385 30181.3473 294.1214 352.9681
ENERGY: 900000 5.5281 19.2201 21.8381 0.0000 -11089.2508 1553.0130 0.0000 0.0000 1827.5268 -7662.1247 308.8676 -9489.6515 -7660.9944 302.5606 656.8254 720.2151 30345.8768 254.2742 318.4820
ENERGY: 1200000 8.3134 17.0555 19.2452 0.0000 -10970.8377 1489.9614 0.0000 0.0000 1829.5212 -7606.7409 309.2047 -9436.2621 -7645.1748 303.6308 473.0360 538.7459 30317.9012 140.5857 204.4599
ENERGY: 1500000 9.6192 18.5027 22.7367 0.0000 -10994.6904 1452.6865 0.0000 0.0000 1720.5984 -7770.5468 290.7958 -9491.1453 -7654.7011 303.3105 -328.0180 -329.3396 30403.1669 97.5701 157.6647
TCL: Running FEP window  20: Lambda1 0.049999999999999684 Lambda2 0.0    [dLambda -0.049999999999999684]
TCL: Setting parameter firsttimestep to 0
TCL: Setting parameter alchLambda to 0.049999999999999684
Info: NONBONDED TABLE R-SQUARED SPACING: 0.0625
Info: NONBONDED TABLE SIZE: 705 POINTS
TCL: Setting parameter alchLambda2 to 0.0
Info: NONBONDED TABLE R-SQUARED SPACING: 0.0625
Info: NONBONDED TABLE SIZE: 705 POINTS
TCL: Running for 1500000 steps
ETITLE: TS BOND ANGLE DIHED IMPRP ELECT VDW BOUNDARY MISC KINETIC TOTAL TEMP POTENTIAL TOTALAVG TEMPAVG PRESSURE GPRESSURE VOLUME PRESSAVG GPRESSAVG
ENERGY: 0 9.6192 18.5027 22.7367 0.0000 -10994.6896 1451.9732 0.0000 0.0000 1719.7375 -7772.1203 290.6503 -9491.8578 -7772.1203 290.6503 -418.1280 -336.7089 30403.1669 -418.1280 -336.7089
ENERGY: 300000 4.2450 17.3791 20.8165 0.0000 -10894.1330 1380.2065 0.0000 0.0000 1725.3873 -7746.0986 291.6052 -9471.4859 -7739.9327 294.3952 -577.5885 -483.5245 30369.3655 76.3113 131.4775
ENERGY: 600000 8.5103 15.0486 16.3099 0.0000 -10933.8257 1457.8525 0.0000 0.0000 1746.4118 -7689.6925 295.1585 -9436.1043 -7709.8453 295.3525 168.7684 270.3872 30147.8534 161.2556 213.6168
ENERGY: 900000 3.8728 19.5336 25.5883 0.0000 -10912.7979 1410.8733 0.0000 0.0000 1752.8033 -7700.1266 296.2387 -9452.9299 -7699.8423 296.3008 -529.5154 -464.8847 30382.9822 -23.2801 39.4217
ENERGY: 1200000 6.2566 18.8855 24.0779 0.0000 -10961.0119 1432.0308 0.0000 0.0000 1775.8678 -7703.8932 300.1368 -9479.7611 -7709.6930 296.6370 -247.8931 -220.8807 30338.8843 -1.6722 58.4452
ENERGY: 1500000 2.9574 15.7606 19.4438 0.0000 -11047.8065 1490.4838 0.0000 0.0000 1784.6662 -7734.4947 301.6238 -9519.1609 -7716.7331 297.7497 278.3220 387.1813 30075.1797 37.2599 100.6931
TCL: Exiting due to exit command.
