Info: SIMULATION PARAMETERS:
Info: TIMESTEP               2
Info: NUMBER OF STEPS        0
Info: STEPS PER CYCLE        10
Info: PERIODIC CELL BASIS 1  32.3189 0 0
Info: PERIODIC CELL BASIS 2  0 30.2592 0
Info: PERIODIC CELL BASIS 3  0 0 30.6302
Info: PERIODIC CELL CENTER   0 0 0
Info: WRAPPING WATERS AROUND PERIODIC BOUNDARIES ON OUTPUT.
Info: WRAPPING ALL CLUSTERS AROUND PERIODIC BOUNDARIES ON OUTPUT.
Info: FIRST LDB TIMESTEP     50
Info: LAST LDB TIMESTEP     -1
Info: HOM BACKGROUND SCALING 1
Info: PME BACKGROUND SCALING 1
Info: MIN ATOMS PER PATCH    40
Info: EMPTY PATCH LOAD       40 ATOMS
Info: VELOCITY FILE          mobley_9407874_equil.vel
Info: CENTER OF MASS MOVING INITIALLY? NO
Info: DIELECTRIC             1
Info: EXCLUDE                SCALED ONE-FOUR
Info: 1-4 ELECTROSTATICS SCALED BY 0.833333
Info: MODIFIED 1-4 VDW PARAMETERS WILL BE USED
Info: DCD FILENAME           mobley_9407874_prod.dcd
Info: DCD FREQUENCY          100000
Info: DCD FIRST STEP         100000
Info: DCD FILE WILL CONTAIN UNIT CELL DATA
Info: XST FILENAME           mobley_9407874_prod.xst
Info: XST FREQUENCY          100000
Info: NO VELOCITY DCD OUTPUT
Info: NO FORCE DCD OUTPUT
Info: OUTPUT FILENAME        mobley_9407874_prod
Info: BINARY OUTPUT FILES WILL BE USED
Info: RESTART FILENAME       mobley_9407874_prod.restart
Info: RESTART FREQUENCY      100000
Info: BINARY RESTART FILES WILL BE USED
Info: CUTOFF                 9
Info: PAIRLIST DISTANCE      11
Info: PAIRLIST SHRINK RATE   0.01
Info: PAIRLIST GROW RATE     0.01
Info: PAIRLIST TRIGGER       0.3
Info: PAIRLISTS PER CYCLE    2
Info: PAIRLISTS ENABLED
Info: MARGIN                 2
Info: HYDROGEN GROUP CUTOFF  2.5
Info: PATCH DIMENSION        15.5
Info: ENERGY OUTPUT STEPS    100000
Info: ENERGY EVALUATION STEPS    100000
Info: OUTPUT ENERGY PRECISION 4
Info: CROSSTERM ENERGY INCLUDED IN DIHEDRAL
Info: TIMING OUTPUT STEPS    1000000
Info: PRESSURE OUTPUT STEPS  100000
Info: ALCHEMICAL FEP ON
Info: FEP CURRENT LAMBDA VALUE     0
Info: FEP COMPARISON LAMBDA VALUE  0.05
Info: FEP INTRA-ALCHEMICAL NON-BONDED INTERACTIONS WILL BE RETAINED
Info: FEP INTRA-ALCHEMICAL BONDED INTERACTIONS WILL BE RETAINED
Info: FEP VDW SHIFTING COEFFICIENT 5
Info: FEP ELEC. ACTIVE FOR ANNIHILATED PARTICLES BETWEEN LAMBDA = 0 AND LAMBDA = 0.5
Info: FEP ELEC. ACTIVE FOR EXNIHILATED PARTICLES BETWEEN LAMBDA = 0.5 AND LAMBDA = 1
Info: FEP VDW ACTIVE FOR ANNIHILATED PARTICLES BETWEEN LAMBDA = 0 AND LAMBDA = 1
Info: FEP VDW ACTIVE FOR EXNIHILATED PARTICLES BETWEEN LAMBDA = 0 AND LAMBDA = 1
Info: FEP BOND ACTIVE FOR ANNIHILATED PARTICLES BETWEEN LAMBDA = 1 AND LAMBDA = 1
Info: FEP BOND ACTIVE FOR EXNIHILATED PARTICLES BETWEEN LAMBDA = 0 AND LAMBDA = 0
Info: LANGEVIN DYNAMICS ACTIVE
Info: LANGEVIN TEMPERATURE   300
Info: LANGEVIN USING BBK INTEGRATOR
Info: LANGEVIN DAMPING COEFFICIENT IS 1 INVERSE PS
Info: LANGEVIN DYNAMICS APPLIED TO HYDROGENS
Info: LANGEVIN PISTON PRESSURE CONTROL ACTIVE
Info:        TARGET PRESSURE IS 1.01325 BAR
Info:     OSCILLATION PERIOD IS 50 FS
Info:             DECAY TIME IS 25 FS
Info:     PISTON TEMPERATURE IS 300 K
Info:       PRESSURE CONTROL IS GROUP-BASED
Info:    INITIAL STRAIN RATE IS 8.20038e-05 8.20038e-05 8.20038e-05
Info:       CELL FLUCTUATION IS ISOTROPIC
Info: PARTICLE MESH EWALD (PME) ACTIVE
Info: PME TOLERANCE               1e-06
Info: PME EWALD COEFFICIENT       0.348832
Info: PME INTERPOLATION ORDER     4
Info: PME GRID DIMENSIONS         36 32 32
Info: PME MAXIMUM GRID SPACING    1
Info: PME CALCULATION WILL BE PERFORMED ON GPU
Info: FULL ELECTROSTATIC EVALUATION FREQUENCY      2
Info: USING VERLET I (r-RESPA) MTS SCHEME.
Info: C1 SPLITTING OF LONG RANGE ELECTROSTATICS
Info: PLACING ATOMS IN PATCHES BY HYDROGEN GROUPS
Info: RIGID BONDS TO HYDROGEN : ALL
Info:         ERROR TOLERANCE : 1e-08
Info:          MAX ITERATIONS : 100
Info: RIGID WATER USING SETTLE ALGORITHM
Info: RANDOM NUMBER SEED     1744023465
Info: USE HYDROGEN BONDS?    NO
Info: Using AMBER format force field!
Info: AMBER PARM FILE        mobley_9407874.prmtop
Info: COORDINATE PDB         mobley_9407874.pdb
Info: Exclusions will be read from PARM file!
Info: SCNB (VDW SCALING)     2
Info: USING ARITHMETIC MEAN TO COMBINE L-J SIGMA PARAMETERS
Info: BINARY COORDINATES     mobley_9407874_equil.coor
Info: SUMMARY OF PARAMETERS:
Info: 6 BONDS
Info: 7 ANGLES
Info:   7 HARMONIC
Info:   0 COSINE-BASED
Info: 11 DIHEDRAL
Info: 0 IMPROPER
Info: 0 CROSSTERM
Info: 0 VDW
Info: 21 VDW_PAIRS
Info: 0 NBTHOLE_PAIRS
Info: To read alchdata from file: mobley_9407874.pdb
Info: To read alchflag data from column: 5
Info: STRUCTURE SUMMARY:
Info: 2917 ATOMS
Info: 2916 BONDS
Info: 45 ANGLES
Info: 74 DIHEDRALS
Info: 0 IMPROPERS
Info: 0 CROSSTERMS
Info: 3018 EXCLUSIONS
Info: 2908 RIGID BONDS
Info: ALCH: 0 ATOMS TO DISAPPEAR IN FINAL STATE
Info: ALCH: 25 ATOMS TO APPEAR IN FINAL STATE
Info: 5843 DEGREES OF FREEDOM
Info: 973 HYDROGEN GROUPS
Info: 4 ATOMS IN LARGEST HYDROGEN GROUP
Info: 973 MIGRATION GROUPS
Info: 4 ATOMS IN LARGEST MIGRATION GROUP
Info: TOTAL MASS = 17495.6 amu
Info: TOTAL CHARGE = 1.49012e-08 e
Info: MASS DENSITY = 0.969894 g/cm^3
Info: ATOM DENSITY = 0.0973804 atoms/A^3
Info: ADDED 0 IMPLICIT EXCLUSIONS
Info: NONBONDED TABLE R-SQUARED SPACING: 0.0625
Info: NONBONDED TABLE SIZE: 705 POINTS
Info: REMOVING COM VELOCITY -0.0715718 0.162584 0.148031
Info: Use 3D box decompostion in PME FFT.
Info: Updated CUDA force table with 4096 elements.
Info: Updated CUDA LJ table with 6 x 6 elements.
Info: Found 28 unique exclusion lists needing 96 bytes
TCL: Running for 1500000 steps
ETITLE: TS BOND ANGLE DIHED IMPRP ELECT VDW BOUNDARY MISC KINETIC TOTAL TEMP POTENTIAL TOTALAVG TEMPAVG PRESSURE GPRESSURE VOLUME PRESSAVG GPRESSAVG
ENERGY: 0 4.9091 18.3429 7.6198 0.0000 -10698.0942 1565.5952 0.0000 0.0000 1747.7281 -7353.8991 301.0429 -9101.6272 -7353.8991 301.0429 1075.7141 1156.3500 29954.6792 1075.7141 1156.3500
ENERGY: 300000 1.8299 12.3064 11.0246 0.0000 -10590.4684 1420.4923 0.0000 0.0000 1730.9469 -7413.8683 298.1523 -9144.8152 -7383.1496 296.1858 -78.2770 -79.5501 29507.7959 76.7844 122.8639
ENERGY: 600000 3.2913 12.8861 6.5802 0.0000 -10550.2243 1432.6479 0.0000 0.0000 1718.6299 -7376.1889 296.0308 -9094.8188 -7392.3998 297.5601 -83.3525 -43.4083 30044.1673 -72.9121 -24.1425
ENERGY: 900000 7.2271 9.8339 7.3714 0.0000 -10705.1082 1504.8122 0.0000 0.0000 1720.3372 -7455.5264 296.3249 -9175.8636 -7380.4908 296.9308 395.7615 406.6977 29536.3036 50.9799 103.0852
ENERGY: 1200000 1.6661 15.4230 5.9450 0.0000 -10593.3146 1544.7227 0.0000 0.0000 1695.3102 -7330.2477 292.0140 -9025.5579 -7380.3123 295.2248 1323.1645 1314.8596 29868.1760 108.8489 154.2783
ENERGY: 1500000 3.2176 12.0148 7.5825 0.0000 -10503.4460 1446.9313 0.0000 0.0000 1772.0467 -7261.6531 305.2317 -9033.6998 -7369.5256 296.6905 672.5420 661.7100 29394.4460 128.3243 176.0512
TCL: Running FEP window   2: Lambda1 0.05   Lambda2 0.1    [dLambda 0.05  ]
TCL: Setting parameter firsttimestep to 0
TCL: Setting parameter alchLambda to 0.05
Info: NONBONDED TABLE R-SQUARED SPACING: 0.0625
Info: NONBONDED TABLE SIZE: 705 POINTS
TCL: Setting parameter alchLambda2 to 0.1
Info: NONBONDED TABLE R-SQUARED SPACING: 0.0625
Info: NONBONDED TABLE SIZE: 705 POINTS
TCL: Running for 1500000 steps
ETITLE: TS BOND ANGLE DIHED IMPRP ELECT VDW BOUNDARY MISC KINETIC TOTAL TEMP POTENTIAL TOTALAVG TEMPAVG PRESSURE GPRESSURE VOLUME PRESSAVG GPRESSAVG
ENERGY: 0 3.2176 12.0148 7.5825 0.0000 -10503.4464 1449.0117 0.0000 0.0000 1771.1961 -7260.4237 305.0852 -9031.6199 -7260.4237 305.0852 575.0932 669.3026 29394.4460 575.0932 669.3026
ENERGY: 300000 1.1381 10.4291 7.1905 0.0000 -10675.4322 1475.7605 0.0000 0.0000 1684.2119 -7496.7021 290.1023 -9180.9140 -7359.4808 301.6013 276.5593 328.3435 29647.2801 283.7588 345.8318
ENERGY: 600000 5.4859 12.7191 7.7267 0.0000 -10600.9516 1507.1427 0.0000 0.0000 1705.6640 -7362.2131 293.7974 -9067.8771 -7338.4740 300.4572 561.1609 609.8052 29895.1919 68.9555 137.0881
ENERGY: 900000 2.1108 6.6091 5.4882 0.0000 -10551.1689 1392.3703 0.0000 0.0000 1735.6293 -7408.9612 298.9589 -9144.5904 -7349.3827 300.2320 -449.4300 -281.3051 29747.5202 -4.0809 68.2605
ENERGY: 1200000 1.6538 15.0296 5.5959 0.0000 -10525.9216 1430.4882 0.0000 0.0000 1798.2639 -7274.8902 309.7476 -9073.1541 -7342.5018 301.8260 212.5203 225.6706 29927.9540 21.7289 89.8704
ENERGY: 1500000 2.2803 18.1634 7.4907 0.0000 -10502.5528 1365.9297 0.0000 0.0000 1782.1602 -7326.5285 306.9737 -9108.6887 -7336.2160 302.8694 -404.7468 -337.5828 29934.4477 37.6707 103.7727
TCL: Running FEP window   3: Lambda1 0.1    Lambda2 0.15000000000000002 [dLambda 0.05000000000000002]
TCL: Setting parameter firsttimestep to 0
TCL: Setting parameter alchLambda to 0.1
Info: NONBONDED TABLE R-SQUARED SPACING: 0.0625
Info: NONBONDED TABLE SIZE: 705 POINTS
TCL: Setting parameter alchLambda2 to 0.15000000000000002
Info: NONBONDED TABLE R-SQUARED SPACING: 0.0625
Info: NONBONDED TABLE SIZE: 705 POINTS
TCL: Running for 1500000 steps
ETITLE: TS BOND ANGLE DIHED IMPRP ELECT VDW BOUNDARY MISC KINETIC TOTAL TEMP POTENTIAL TOTALAVG TEMPAVG PRESSURE GPRESSURE VOLUME PRESSAVG GPRESSAVG
ENERGY: 0 2.2803 18.1634 7.4907 0.0000 -10502.5520 1367.0114 0.0000 0.0000 1781.2894 -7326.3168 306.8237 -9107.6062 -7326.3168 306.8237 -423.8330 -331.1445 29934.4477 -423.8330 -331.1445
ENERGY: 300000 3.8862 11.4676 7.0034 0.0000 -10422.4298 1305.4258 0.0000 0.0000 1732.3766 -7362.2702 298.3986 -9094.6468 -7387.4922 302.9729 -1140.6294 -1065.2963 29895.2108 -399.0860 -330.1120
ENERGY: 600000 3.0663 11.7303 5.9174 0.0000 -10619.1105 1438.2678 0.0000 0.0000 1728.9970 -7431.1317 297.8165 -9160.1286 -7395.9444 299.7424 6.9527 109.1127 29557.0533 -305.7304 -228.5872
ENERGY: 900000 3.9958 12.9452 8.3386 0.0000 -10585.5230 1471.5858 0.0000 0.0000 1743.8974 -7344.7602 300.3831 -9088.6576 -7394.6506 299.2692 47.8681 192.4504 30051.0076 -112.0044 -30.7981
ENERGY: 1200000 2.5362 7.5512 6.3365 0.0000 -10404.5388 1325.9285 0.0000 0.0000 1752.2763 -7309.9101 301.8263 -9062.1864 -7380.8051 299.6165 -669.2851 -654.5787 30363.1198 -102.0061 -28.9104
ENERGY: 1500000 1.3809 13.9406 5.9811 0.0000 -10411.7913 1390.6140 0.0000 0.0000 1779.9662 -7219.9085 306.5958 -8999.8747 -7364.2522 301.1876 121.8249 193.5824 29817.5524 -23.8086 47.7159
TCL: Running FEP window   4: Lambda1 0.15000000000000002 Lambda2 0.2    [dLambda 0.04999999999999999]
TCL: Setting parameter firsttimestep to 0
TCL: Setting parameter alchLambda to 0.15000000000000002
Info: NONBONDED TABLE R-SQUARED SPACING: 0.0625
Info: NONBONDED TABLE SIZE: 705 POINTS
TCL: Setting parameter alchLambda2 to 0.2
Info: NONBONDED TABLE R-SQUARED SPACING: 0.0625
Info: NONBONDED TABLE SIZE: 705 POINTS
TCL: Running for 1500000 steps
ETITLE: TS BOND ANGLE DIHED IMPRP ELECT VDW BOUNDARY MISC KINETIC TOTAL TEMP POTENTIAL TOTALAVG TEMPAVG PRESSURE GPRESSURE VOLUME PRESSAVG GPRESSAVG
ENERGY: 0 1.3809 13.9406 5.9811 0.0000 -10411.7913 1391.7816 0.0000 0.0000 1779.1098 -7219.5973 306.4483 -8998.7071 -7219.5973 306.4483 131.4181 202.0014 29817.5524 131.4181 202.0014
ENERGY: 300000 4.7233 10.0372 5.9977 0.0000 -10515.3714 1414.2687 0.0000 0.0000 1740.7627 -7339.5818 299.8431 -9080.3445 -7308.4629 301.8487 99.6506 246.9168 29516.1272 414.8506 498.9120
ENERGY: 600000 3.0793 11.3105 5.7058 0.0000 -10499.3318 1357.6541 0.0000 0.0000 1726.7164 -7394.8656 297.4237 -9121.5821 -7342.4776 299.2252 -409.0646 -324.1371 29856.9274 121.5799 200.2883
ENERGY: 900000 0.8404 9.6914 7.1975 0.0000 -10477.5058 1407.4627 0.0000 0.0000 1708.0933 -7344.2205 294.2159 -9052.3138 -7356.2947 297.6020 -47.4330 24.6113 29940.7111 48.1255 117.7107
ENERGY: 1200000 1.7875 15.2981 8.1903 0.0000 -10638.6696 1459.1804 0.0000 0.0000 1676.1865 -7478.0268 288.7200 -9154.2132 -7365.2479 297.3035 422.1526 461.6666 29398.5038 10.0281 77.3926
ENERGY: 1500000 2.1269 10.4682 6.2798 0.0000 -10497.5526 1401.0824 0.0000 0.0000 1705.7699 -7371.8254 293.8157 -9077.5953 -7356.6548 297.7301 -293.2776 -209.4678 30041.0318 21.9059 86.6083
TCL: Running FEP window   5: Lambda1 0.2    Lambda2 0.25   [dLambda 0.04999999999999999]
TCL: Setting parameter firsttimestep to 0
TCL: Setting parameter alchLambda to 0.2
Info: NONBONDED TABLE R-SQUARED SPACING: 0.0625
Info: NONBONDED TABLE SIZE: 705 POINTS
TCL: Setting parameter alchLambda2 to 0.25
Info: NONBONDED TABLE R-SQUARED SPACING: 0.0625
Info: NONBONDED TABLE SIZE: 705 POINTS
TCL: Running for 1500000 steps
ETITLE: TS BOND ANGLE DIHED IMPRP ELECT VDW BOUNDARY MISC KINETIC TOTAL TEMP POTENTIAL TOTALAVG TEMPAVG PRESSURE GPRESSURE VOLUME PRESSAVG GPRESSAVG
ENERGY: 0 2.1269 10.4682 6.2798 0.0000 -10497.5526 1401.0175 0.0000 0.0000 1704.9128 -7372.7474 293.6680 -9077.6602 -7372.7474 293.6680 -296.4029 -202.8377 30041.0318 -296.4029 -202.8377
ENERGY: 300000 4.7743 7.5850 9.0392 0.0000 -10382.1323 1301.6502 0.0000 0.0000 1751.7981 -7307.2854 301.7439 -9059.0835 -7368.2134 296.5446 -916.8997 -871.6320 30309.4411 -326.0803 -271.4699
ENERGY: 600000 2.5790 13.4885 5.2605 0.0000 -10425.6318 1327.2626 0.0000 0.0000 1777.5222 -7299.5190 306.1749 -9077.0412 -7351.6491 298.6238 -389.5025 -297.9706 29521.4940 -351.1314 -285.0003
ENERGY: 900000 2.3405 14.8141 7.0488 0.0000 -10574.5001 1416.7289 0.0000 0.0000 1709.0485 -7424.5193 294.3804 -9133.5678 -7361.7329 298.7518 -79.6275 -72.5452 29716.5201 -163.0712 -96.9075
ENERGY: 1200000 3.7580 15.2319 5.7163 0.0000 -10657.0359 1470.9446 0.0000 0.0000 1725.6230 -7435.7621 297.2353 -9161.3851 -7350.5390 299.3016 139.0258 206.0504 29914.2739 -21.4172 40.2667
ENERGY: 1500000 1.3867 9.8903 6.8772 0.0000 -10576.2052 1470.6984 0.0000 0.0000 1833.3531 -7253.9996 315.7916 -9087.3527 -7349.8775 299.8553 683.1754 707.5348 29564.9386 -3.0016 59.3147
TCL: Running FEP window   6: Lambda1 0.25   Lambda2 0.3    [dLambda 0.04999999999999999]
TCL: Setting parameter firsttimestep to 0
TCL: Setting parameter alchLambda to 0.25
Info: NONBONDED TABLE R-SQUARED SPACING: 0.0625
Info: NONBONDED TABLE SIZE: 705 POINTS
TCL: Setting parameter alchLambda2 to 0.3
Info: NONBONDED TABLE R-SQUARED SPACING: 0.0625
Info: NONBONDED TABLE SIZE: 705 POINTS
TCL: Running for 1500000 steps
ETITLE: TS BOND ANGLE DIHED IMPRP ELECT VDW BOUNDARY MISC KINETIC TOTAL TEMP POTENTIAL TOTALAVG TEMPAVG PRESSURE GPRESSURE VOLUME PRESSAVG GPRESSAVG
ENERGY: 0 1.3866 9.8903 6.8772 0.0000 -10576.2050 1471.3657 0.0000 0.0000 1832.4585 -7254.2267 315.6375 -9086.6852 -7254.2267 315.6375 633.2756 715.0407 29564.9386 633.2756 715.0407
ENERGY: 300000 2.9620 8.4952 5.9124 0.0000 -10424.0116 1369.5121 0.0000 0.0000 1781.9500 -7255.1801 306.9375 -9037.1300 -7326.0344 307.4620 82.3513 96.4734 29715.8469 308.6943 362.7598
ENERGY: 600000 1.6782 11.2300 5.1098 0.0000 -10535.9155 1415.1932 0.0000 0.0000 1747.3749 -7355.3294 300.9820 -9102.7043 -7332.9851 302.0726 137.4811 91.6053 29720.2525 110.2827 157.7007
ENERGY: 900000 2.8095 14.7830 7.6887 0.0000 -10647.4060 1471.9642 0.0000 0.0000 1752.5295 -7397.6311 301.8699 -9150.1606 -7340.5250 302.2061 460.1194 503.8704 29681.4650 250.1934 304.8676
ENERGY: 1200000 1.3280 15.6324 8.1260 0.0000 -10352.1773 1297.5665 0.0000 0.0000 1764.1587 -7265.3657 303.8730 -9029.5244 -7338.3182 301.3460 -808.3857 -776.6145 30258.6940 165.3994 222.2044
ENERGY: 1500000 1.7516 15.6707 6.4637 0.0000 -10441.5098 1422.2839 0.0000 0.0000 1744.2918 -7251.0481 300.4510 -8995.3399 -7343.8316 300.6397 329.6605 493.7247 29668.6518 142.3856 205.4548
TCL: Running FEP window   7: Lambda1 0.3    Lambda2 0.35   [dLambda 0.04999999999999999]
TCL: Setting parameter firsttimestep to 0
TCL: Setting parameter alchLambda to 0.3
Info: NONBONDED TABLE R-SQUARED SPACING: 0.0625
Info: NONBONDED TABLE SIZE: 705 POINTS
TCL: Setting parameter alchLambda2 to 0.35
Info: NONBONDED TABLE R-SQUARED SPACING: 0.0625
Info: NONBONDED TABLE SIZE: 705 POINTS
TCL: Running for 1500000 steps
ETITLE: TS BOND ANGLE DIHED IMPRP ELECT VDW BOUNDARY MISC KINETIC TOTAL TEMP POTENTIAL TOTALAVG TEMPAVG PRESSURE GPRESSURE VOLUME PRESSAVG GPRESSAVG
ENERGY: 0 1.7516 15.6707 6.4637 0.0000 -10441.5110 1423.0561 0.0000 0.0000 1743.4394 -7251.1294 300.3042 -8994.5688 -7251.1294 300.3042 428.8493 502.8063 29668.6518 428.8493 502.8063
ENERGY: 300000 2.8784 14.6867 8.7489 0.0000 -10523.9023 1409.2155 0.0000 0.0000 1754.8380 -7333.5348 302.2676 -9088.3728 -7304.0785 304.5731 68.5406 118.6006 29661.1654 -48.6475 6.5773
ENERGY: 600000 2.0130 11.5986 7.2810 0.0000 -10724.9129 1567.6709 0.0000 0.0000 1714.4080 -7421.9415 295.3036 -9136.3495 -7348.1787 301.2569 842.0647 949.6945 29975.9875 160.1079 229.4711
ENERGY: 900000 3.0409 13.5737 7.2223 0.0000 -10534.7738 1375.7014 0.0000 0.0000 1758.1520 -7377.0835 302.8384 -9135.2355 -7339.1775 302.4798 -586.9012 -546.3862 30030.2526 -64.6973 -0.0460
ENERGY: 1200000 1.5989 13.3162 6.0991 0.0000 -10605.6431 1433.9772 0.0000 0.0000 1711.6222 -7439.0295 294.8237 -9150.6517 -7350.0332 302.0039 181.8002 180.0095 29826.4598 46.5377 109.1613
ENERGY: 1500000 3.9843 10.2620 5.2901 0.0000 -10558.9715 1422.0879 0.0000 0.0000 1753.2561 -7364.0911 301.9951 -9117.3472 -7351.3679 301.4196 -22.7980 13.9549 29862.9789 62.3018 118.8563
TCL: Running FEP window   8: Lambda1 0.35   Lambda2 0.39999999999999997 [dLambda 0.04999999999999999]
TCL: Setting parameter firsttimestep to 0
TCL: Setting parameter alchLambda to 0.35
Info: NONBONDED TABLE R-SQUARED SPACING: 0.0625
Info: NONBONDED TABLE SIZE: 705 POINTS
TCL: Setting parameter alchLambda2 to 0.39999999999999997
Info: NONBONDED TABLE R-SQUARED SPACING: 0.0625
Info: NONBONDED TABLE SIZE: 705 POINTS
TCL: Running for 1500000 steps
ETITLE: TS BOND ANGLE DIHED IMPRP ELECT VDW BOUNDARY MISC KINETIC TOTAL TEMP POTENTIAL TOTALAVG TEMPAVG PRESSURE GPRESSURE VOLUME PRESSAVG GPRESSAVG
ENERGY: 0 3.9843 10.2620 5.2901 0.0000 -10558.9709 1422.8675 0.0000 0.0000 1752.3765 -7364.1904 301.8436 -9116.5669 -7364.1904 301.8436 -57.5409 24.1015 29862.9789 -57.5409 24.1015
ENERGY: 300000 2.4239 12.2609 6.8789 0.0000 -10605.2775 1459.9412 0.0000 0.0000 1781.2314 -7342.5412 306.8138 -9123.7726 -7355.1698 303.3114 522.9834 536.2075 29646.5296 99.1426 151.4212
ENERGY: 600000 2.3009 13.1423 9.6227 0.0000 -10509.1641 1417.0980 0.0000 0.0000 1752.1156 -7314.8846 301.7986 -9067.0003 -7359.5246 301.7005 109.6737 187.8852 30260.0481 173.0693 229.7292
ENERGY: 900000 2.0622 8.3436 7.7551 0.0000 -10348.1917 1256.0004 0.0000 0.0000 1681.9722 -7392.0581 289.7165 -9074.0303 -7356.8149 300.0219 -1231.1537 -1128.6215 30080.8732 118.6070 174.5912
ENERGY: 1200000 1.9991 9.2529 6.3516 0.0000 -10434.0725 1388.4375 0.0000 0.0000 1763.0507 -7264.9808 303.6822 -9028.0315 -7338.3913 300.3004 -97.5642 -134.6145 30587.9753 40.2869 89.2783
ENERGY: 1500000 3.7330 15.6929 7.0287 0.0000 -10654.7358 1465.0576 0.0000 0.0000 1720.0851 -7443.1385 296.2814 -9163.2236 -7346.0711 300.0576 131.6151 130.7837 29887.9208 31.3885 74.7072
TCL: Running FEP window   9: Lambda1 0.39999999999999997 Lambda2 0.44999999999999996 [dLambda 0.04999999999999999]
TCL: Setting parameter firsttimestep to 0
TCL: Setting parameter alchLambda to 0.39999999999999997
Info: NONBONDED TABLE R-SQUARED SPACING: 0.0625
Info: NONBONDED TABLE SIZE: 705 POINTS
TCL: Setting parameter alchLambda2 to 0.44999999999999996
Info: NONBONDED TABLE R-SQUARED SPACING: 0.0625
Info: NONBONDED TABLE SIZE: 705 POINTS
TCL: Running for 1500000 steps
ETITLE: TS BOND ANGLE DIHED IMPRP ELECT VDW BOUNDARY MISC KINETIC TOTAL TEMP POTENTIAL TOTALAVG TEMPAVG PRESSURE GPRESSURE VOLUME PRESSAVG GPRESSAVG
ENERGY: 0 3.7330 15.6929 7.0287 0.0000 -10654.7357 1465.0588 0.0000 0.0000 1719.2232 -7443.9991 296.1330 -9163.2224 -7443.9991 296.1330 77.9765 141.1205 29887.9208 77.9765 141.1205
ENERGY: 300000 3.6009 9.1369 6.9498 0.0000 -10488.6929 1431.5517 0.0000 0.0000 1719.0824 -7318.3710 296.1087 -9037.4535 -7376.4813 297.4577 -90.1182 21.4440 30348.6075 277.2653 348.8845
ENERGY: 600000 3.0102 12.7770 6.6114 0.0000 -10630.0263 1478.7057 0.0000 0.0000 1684.5974 -7444.3246 290.1687 -9128.9220 -7367.2913 298.4194 487.7430 498.8426 29741.8519 345.8586 398.4383
ENERGY: 900000 3.0487 9.8032 6.5555 0.0000 -10386.0933 1328.4672 0.0000 0.0000 1787.5281 -7250.6907 307.8984 -9038.2188 -7354.7603 299.1945 -681.3247 -639.8489 30704.3582 57.1139 117.4606
ENERGY: 1200000 3.5025 12.8534 6.0960 0.0000 -10544.0598 1430.8245 0.0000 0.0000 1789.3589 -7301.4246 308.2137 -9090.7834 -7346.8954 299.2126 107.9294 155.5379 29985.8349 -1.1056 60.4821
ENERGY: 1500000 3.7144 8.7247 6.4164 0.0000 -10644.8096 1530.3362 0.0000 0.0000 1736.5190 -7359.0989 299.1121 -9095.6178 -7350.2569 299.4699 1226.2147 1269.8895 29461.4899 95.1300 154.1009
TCL: Running FEP window  10: Lambda1 0.44999999999999996 Lambda2 0.49999999999999994 [dLambda 0.04999999999999999]
TCL: Setting parameter firsttimestep to 0
TCL: Setting parameter alchLambda to 0.44999999999999996
Info: NONBONDED TABLE R-SQUARED SPACING: 0.0625
Info: NONBONDED TABLE SIZE: 705 POINTS
TCL: Setting parameter alchLambda2 to 0.49999999999999994
Info: NONBONDED TABLE R-SQUARED SPACING: 0.0625
Info: NONBONDED TABLE SIZE: 705 POINTS
TCL: Running for 1500000 steps
ETITLE: TS BOND ANGLE DIHED IMPRP ELECT VDW BOUNDARY MISC KINETIC TOTAL TEMP POTENTIAL TOTALAVG TEMPAVG PRESSURE GPRESSURE VOLUME PRESSAVG GPRESSAVG
ENERGY: 0 3.7144 8.7247 6.4164 0.0000 -10644.8090 1530.9935 0.0000 0.0000 1735.6725 -7359.2875 298.9663 -9094.9600 -7359.2875 298.9663 1209.2820 1283.9065 29461.4899 1209.2820 1283.9065
ENERGY: 300000 4.1231 11.1477 6.5905 0.0000 -10654.2563 1444.1819 0.0000 0.0000 1775.1190 -7413.0942 305.7609 -9188.2132 -7404.9990 299.7883 39.7183 137.6788 29597.5628 325.5862 410.6778
ENERGY: 600000 2.8358 13.3506 5.7480 0.0000 -10546.2614 1450.8019 0.0000 0.0000 1768.3594 -7305.1657 304.5966 -9073.5251 -7392.3251 301.2666 342.0581 407.5658 30057.4815 73.4617 142.2941
ENERGY: 900000 2.0808 14.1121 7.6627 0.0000 -10541.3542 1425.2902 0.0000 0.0000 1768.5474 -7323.6611 304.6290 -9092.2084 -7379.9202 300.4476 11.3106 44.6405 30160.6505 -3.2672 63.9527
ENERGY: 1200000 2.1255 11.2167 6.7306 0.0000 -10546.0141 1395.9433 0.0000 0.0000 1837.4897 -7292.5083 316.5042 -9129.9980 -7374.5343 301.4160 -51.8029 73.2464 29662.8476 -60.4543 7.3195
ENERGY: 1500000 3.3996 12.5222 6.5564 0.0000 -10507.2606 1382.1489 0.0000 0.0000 1785.9891 -7316.6445 307.6333 -9102.6335 -7368.5052 302.0672 -15.2952 11.4503 29928.2308 -25.1104 41.9834
TCL: Running FEP window  11: Lambda1 0.49999999999999994 Lambda2 0.5499999999999999 [dLambda 0.04999999999999999]
TCL: Setting parameter firsttimestep to 0
TCL: Setting parameter alchLambda to 0.49999999999999994
Info: NONBONDED TABLE R-SQUARED SPACING: 0.0625
Info: NONBONDED TABLE SIZE: 705 POINTS
TCL: Setting parameter alchLambda2 to 0.5499999999999999
Info: NONBONDED TABLE R-SQUARED SPACING: 0.0625
Info: NONBONDED TABLE SIZE: 705 POINTS
TCL: Running for 1500000 steps
ETITLE: TS BOND ANGLE DIHED IMPRP ELECT VDW BOUNDARY MISC KINETIC TOTAL TEMP POTENTIAL TOTALAVG TEMPAVG PRESSURE GPRESSURE VOLUME PRESSAVG GPRESSAVG
ENERGY: 0 3.3996 12.5222 6.5564 0.0000 -10507.2627 1383.2626 0.0000 0.0000 1785.1288 -7316.3931 307.4851 -9101.5219 -7316.3931 307.4851 -41.8685 32.8689 29928.2308 -41.8685 32.8689
ENERGY: 300000 2.5673 11.2235 6.9359 0.0000 -10448.7197 1355.5396 0.0000 0.0000 1733.9946 -7338.4589 298.6773 -9072.4535 -7341.5931 304.5320 -489.6300 -425.3726 30410.4118 -357.7461 -301.0956
ENERGY: 600000 1.3080 13.3553 7.1829 0.0000 -10419.6446 1321.9966 0.0000 0.0000 1721.3704 -7354.4313 296.5028 -9075.8018 -7345.9758 301.7378 -542.4572 -493.2903 29886.0765 -338.4935 -274.3832
ENERGY: 900000 2.1154 11.7438 6.8431 0.0000 -10472.8957 1377.3932 0.0000 0.0000 1733.7065 -7341.0937 298.6277 -9074.8002 -7343.0755 302.0726 -276.1215 -237.2131 29961.9421 -260.3554 -190.9364
ENERGY: 1200000 2.0690 7.8849 6.1534 0.0000 -10547.1271 1432.1030 0.0000 0.0000 1704.0150 -7394.9019 293.5134 -9098.9169 -7350.1228 300.3680 67.2000 132.4755 30144.0056 -97.1820 -24.7590
ENERGY: 1500000 2.8441 11.4480 6.3431 0.0000 -10682.4392 1538.5832 0.0000 0.0000 1731.4282 -7391.7925 298.2353 -9123.2207 -7357.6137 300.1134 796.4204 829.6714 30131.7822 21.7866 93.0420
TCL: Running FEP window  12: Lambda1 0.5499999999999999 Lambda2 0.6    [dLambda 0.050000000000000044]
TCL: Setting parameter firsttimestep to 0
TCL: Setting parameter alchLambda to 0.5499999999999999
Info: NONBONDED TABLE R-SQUARED SPACING: 0.0625
Info: NONBONDED TABLE SIZE: 705 POINTS
TCL: Setting parameter alchLambda2 to 0.6
Info: NONBONDED TABLE R-SQUARED SPACING: 0.0625
Info: NONBONDED TABLE SIZE: 705 POINTS
TCL: Running for 1500000 steps
ETITLE: TS BOND ANGLE DIHED IMPRP ELECT VDW BOUNDARY MISC KINETIC TOTAL TEMP POTENTIAL TOTALAVG TEMPAVG PRESSURE GPRESSURE VOLUME PRESSAVG GPRESSAVG
ENERGY: 0 2.8441 11.4480 6.3431 0.0000 -10682.0505 1538.2750 0.0000 0.0000 1730.5336 -7392.6067 298.0812 -9123.1403 -7392.6067 298.0812 762.8061 835.8939 30131.7822 762.8061 835.8939
ENERGY: 300000 2.6013 14.4690 7.7722 0.0000 -10615.6993 1476.0287 0.0000 0.0000 1794.1374 -7320.6907 309.0368 -9114.8281 -7356.0383 302.7125 529.2836 625.0307 29963.6761 383.3404 465.2241
ENERGY: 600000 3.2404 9.6590 5.9547 0.0000 -10669.7229 1504.5269 0.0000 0.0000 1744.6634 -7401.6784 300.5150 -9146.3418 -7364.5388 300.9130 381.0505 554.5424 29865.5730 169.6159 245.3704
ENERGY: 900000 2.5267 10.7781 7.6232 0.0000 -10572.9866 1444.4857 0.0000 0.0000 1775.0205 -7332.5525 305.7439 -9107.5730 -7356.4466 302.1892 446.0118 504.4179 29559.9790 93.6949 173.5198
ENERGY: 1200000 1.1992 17.0968 6.1549 0.0000 -10598.8251 1427.0769 0.0000 0.0000 1733.6416 -7413.6557 298.6165 -9147.2973 -7353.6810 302.2329 -217.8736 -77.7521 30118.9128 -10.0390 64.0997
ENERGY: 1500000 1.7586 13.0073 5.9419 0.0000 -10700.8958 1503.1130 0.0000 0.0000 1685.0447 -7492.0304 290.2458 -9177.0751 -7362.6469 301.7389 470.2016 570.6259 30034.0395 -0.3204 66.9264
TCL: Running FEP window  13: Lambda1 0.6    Lambda2 0.65   [dLambda 0.050000000000000044]
TCL: Setting parameter firsttimestep to 0
TCL: Setting parameter alchLambda to 0.6
Info: NONBONDED TABLE R-SQUARED SPACING: 0.0625
Info: NONBONDED TABLE SIZE: 705 POINTS
TCL: Setting parameter alchLambda2 to 0.65
Info: NONBONDED TABLE R-SQUARED SPACING: 0.0625
Info: NONBONDED TABLE SIZE: 705 POINTS
TCL: Running for 1500000 steps
ETITLE: TS BOND ANGLE DIHED IMPRP ELECT VDW BOUNDARY MISC KINETIC TOTAL TEMP POTENTIAL TOTALAVG TEMPAVG PRESSURE GPRESSURE VOLUME PRESSAVG GPRESSAVG
ENERGY: 0 1.7586 13.0073 5.9419 0.0000 -10701.0011 1502.7687 0.0000 0.0000 1684.1901 -7493.3347 290.0986 -9177.5247 -7493.3347 290.0986 482.1344 575.3282 30034.0395 482.1344 575.3282
ENERGY: 300000 3.0272 11.7124 6.2650 0.0000 -10584.2499 1515.3759 0.0000 0.0000 1757.5033 -7290.3661 302.7266 -9047.8693 -7406.0999 296.2207 907.3695 1009.0698 29970.3445 123.6553 186.2273
ENERGY: 600000 1.5230 14.9162 6.7929 0.0000 -10594.1226 1523.4406 0.0000 0.0000 1719.1247 -7328.3252 296.1160 -9047.4499 -7376.7394 298.3421 1023.2779 1130.4885 29536.5902 246.5382 311.2510
ENERGY: 900000 6.6966 14.3955 7.2355 0.0000 -10648.6913 1466.3194 0.0000 0.0000 1749.3124 -7404.7318 301.3158 -9154.0443 -7374.4938 298.9197 -49.5600 63.3187 30055.2348 198.0852 269.3832
ENERGY: 1200000 1.8461 16.9319 8.7097 0.0000 -10482.0435 1334.5288 0.0000 0.0000 1669.9237 -7450.1033 287.6412 -9120.0270 -7379.6553 298.0518 -959.7028 -835.2492 30377.0202 116.5576 187.6306
ENERGY: 1500000 1.9328 13.0724 7.6050 0.0000 -10330.0977 1304.8397 0.0000 0.0000 1737.0928 -7265.5549 299.2110 -9002.6478 -7367.3725 298.5725 -724.2916 -687.6020 30593.2218 -0.0705 71.7780
TCL: Running FEP window  14: Lambda1 0.65   Lambda2 0.7000000000000001 [dLambda 0.050000000000000044]
TCL: Setting parameter firsttimestep to 0
TCL: Setting parameter alchLambda to 0.65
Info: NONBONDED TABLE R-SQUARED SPACING: 0.0625
Info: NONBONDED TABLE SIZE: 705 POINTS
TCL: Setting parameter alchLambda2 to 0.7000000000000001
Info: NONBONDED TABLE R-SQUARED SPACING: 0.0625
Info: NONBONDED TABLE SIZE: 705 POINTS
TCL: Running for 1500000 steps
ETITLE: TS BOND ANGLE DIHED IMPRP ELECT VDW BOUNDARY MISC KINETIC TOTAL TEMP POTENTIAL TOTALAVG TEMPAVG PRESSURE GPRESSURE VOLUME PRESSAVG GPRESSAVG
ENERGY: 0 1.9327 13.0724 7.6050 0.0000 -10331.1374 1305.0772 0.0000 0.0000 1736.2181 -7267.2320 299.0603 -9003.4500 -7267.2320 299.0603 -754.9872 -679.0809 30593.2218 -754.9872 -679.0809
ENERGY: 300000 1.4002 8.5816 5.7535 0.0000 -10628.5946 1486.6489 0.0000 0.0000 1799.4193 -7326.7912 309.9466 -9126.2105 -7339.8433 302.2428 353.9181 420.9854 30317.9633 -133.1830 -45.7337
ENERGY: 600000 3.4369 10.0055 6.8121 0.0000 -10522.8660 1412.5028 0.0000 0.0000 1735.8994 -7354.2094 299.0054 -9090.1087 -7363.9177 298.6823 257.6436 400.2249 29585.8339 -33.5876 49.8189
ENERGY: 900000 1.5302 11.7853 6.1877 0.0000 -10513.4203 1366.3030 0.0000 0.0000 1750.7461 -7376.8680 301.5627 -9127.6141 -7367.4216 301.2641 -485.1984 -368.2320 30310.6059 -62.7828 11.2423
ENERGY: 1200000 2.9073 10.3812 8.1684 0.0000 -10611.0135 1467.9722 0.0000 0.0000 1733.3021 -7388.2823 298.5580 -9121.5844 -7363.3542 301.3404 474.5509 490.4737 29637.3231 -1.2889 64.2754
ENERGY: 1500000 1.2343 12.1013 7.4366 0.0000 -10528.7590 1390.6078 0.0000 0.0000 1705.1745 -7412.2044 293.7131 -9117.3790 -7367.0321 301.0108 33.2155 122.5647 29462.7296 -4.7757 63.7481
TCL: Running FEP window  15: Lambda1 0.7000000000000001 Lambda2 0.7500000000000001 [dLambda 0.050000000000000044]
TCL: Setting parameter firsttimestep to 0
TCL: Setting parameter alchLambda to 0.7000000000000001
Info: NONBONDED TABLE R-SQUARED SPACING: 0.0625
Info: NONBONDED TABLE SIZE: 705 POINTS
TCL: Setting parameter alchLambda2 to 0.7500000000000001
Info: NONBONDED TABLE R-SQUARED SPACING: 0.0625
Info: NONBONDED TABLE SIZE: 705 POINTS
TCL: Running for 1500000 steps
ETITLE: TS BOND ANGLE DIHED IMPRP ELECT VDW BOUNDARY MISC KINETIC TOTAL TEMP POTENTIAL TOTALAVG TEMPAVG PRESSURE GPRESSURE VOLUME PRESSAVG GPRESSAVG
ENERGY: 0 1.2343 12.1012 7.4366 0.0000 -10529.8029 1391.5897 0.0000 0.0000 1704.2824 -7413.1587 293.5594 -9117.4411 -7413.1587 293.5594 54.8664 140.7682 29462.7296 54.8664 140.7682
ENERGY: 300000 3.8969 11.8887 7.6829 0.0000 -10489.3772 1425.0778 0.0000 0.0000 1792.2819 -7248.5490 308.7172 -9040.8308 -7330.0843 302.8975 210.9595 312.1660 30026.9939 -168.1286 -60.2553
ENERGY: 600000 2.4964 12.2607 6.3845 0.0000 -10445.1794 1358.4762 0.0000 0.0000 1798.9056 -7266.6560 309.8581 -9065.5616 -7328.6333 302.6661 -319.5145 -233.9118 30150.3792 -208.6662 -109.3524
ENERGY: 900000 3.1827 12.9620 6.4577 0.0000 -10385.5069 1277.7880 0.0000 0.0000 1804.4078 -7280.7087 310.8059 -9085.1164 -7349.6186 301.7812 -876.3931 -827.3578 29993.2533 -211.3169 -123.6368
ENERGY: 1200000 4.2666 5.3098 5.2029 0.0000 -10598.9427 1439.0518 0.0000 0.0000 1750.3431 -7394.7684 301.4933 -9145.1115 -7335.4233 302.7655 212.5306 237.0084 29792.6545 -204.7923 -125.9400
ENERGY: 1500000 5.4740 18.6402 7.0018 0.0000 -10424.3488 1336.1987 0.0000 0.0000 1720.4286 -7336.6055 296.3406 -9057.0341 -7341.3804 302.0685 -368.8026 -346.0576 30096.3869 -172.2992 -102.9334
TCL: Running FEP window  16: Lambda1 0.7500000000000001 Lambda2 0.8000000000000002 [dLambda 0.050000000000000044]
TCL: Setting parameter firsttimestep to 0
TCL: Setting parameter alchLambda to 0.7500000000000001
Info: NONBONDED TABLE R-SQUARED SPACING: 0.0625
Info: NONBONDED TABLE SIZE: 705 POINTS
TCL: Setting parameter alchLambda2 to 0.8000000000000002
Info: NONBONDED TABLE R-SQUARED SPACING: 0.0625
Info: NONBONDED TABLE SIZE: 705 POINTS
TCL: Running for 1500000 steps
ETITLE: TS BOND ANGLE DIHED IMPRP ELECT VDW BOUNDARY MISC KINETIC TOTAL TEMP POTENTIAL TOTALAVG TEMPAVG PRESSURE GPRESSURE VOLUME PRESSAVG GPRESSAVG
ENERGY: 0 5.4740 18.6402 7.0018 0.0000 -10424.7022 1336.3249 0.0000 0.0000 1719.5623 -7337.6989 296.1914 -9057.2613 -7337.6989 296.1914 -423.3423 -333.5062 30096.3869 -423.3423 -333.5062
ENERGY: 300000 1.3525 13.2324 5.7733 0.0000 -10612.1185 1466.2200 0.0000 0.0000 1717.8445 -7407.6958 295.8955 -9125.5402 -7407.4016 299.8264 230.2369 296.0026 29929.8956 -210.3208 -147.9088
ENERGY: 600000 4.0297 13.1306 6.2975 0.0000 -10644.7648 1475.6438 0.0000 0.0000 1697.0100 -7448.6534 292.3068 -9145.6633 -7408.7385 298.9614 489.3181 532.6974 29769.8103 198.0888 254.9911
ENERGY: 900000 3.8901 6.9598 7.6639 0.0000 -10527.5478 1424.9879 0.0000 0.0000 1706.5465 -7377.4996 293.9494 -9084.0461 -7399.0714 298.7669 675.5093 759.5014 29317.8499 293.1982 349.2272
ENERGY: 1200000 3.4632 11.7490 6.5744 0.0000 -10478.4953 1388.8039 0.0000 0.0000 1683.5626 -7384.3422 289.9905 -9067.9048 -7398.4554 298.5873 -179.5610 -81.6418 30013.2328 159.1894 225.0170
ENERGY: 1500000 1.1045 11.7747 8.7876 0.0000 -10629.2816 1472.5247 0.0000 0.0000 1691.5765 -7443.5136 291.3709 -9135.0901 -7399.4276 298.4613 318.5840 297.2296 30222.4355 136.6514 190.4466
TCL: Running FEP window  17: Lambda1 0.8000000000000002 Lambda2 0.8500000000000002 [dLambda 0.050000000000000044]
TCL: Setting parameter firsttimestep to 0
TCL: Setting parameter alchLambda to 0.8000000000000002
Info: NONBONDED TABLE R-SQUARED SPACING: 0.0625
Info: NONBONDED TABLE SIZE: 705 POINTS
TCL: Setting parameter alchLambda2 to 0.8500000000000002
Info: NONBONDED TABLE R-SQUARED SPACING: 0.0625
Info: NONBONDED TABLE SIZE: 705 POINTS
TCL: Running for 1500000 steps
ETITLE: TS BOND ANGLE DIHED IMPRP ELECT VDW BOUNDARY MISC KINETIC TOTAL TEMP POTENTIAL TOTALAVG TEMPAVG PRESSURE GPRESSURE VOLUME PRESSAVG GPRESSAVG
ENERGY: 0 1.1045 11.7747 8.7876 0.0000 -10629.9838 1471.9778 0.0000 0.0000 1690.6935 -7445.6456 291.2188 -9136.3392 -7445.6456 291.2188 240.8476 302.7373 30222.4355 240.8476 302.7373
ENERGY: 300000 2.4923 11.7214 6.1952 0.0000 -10584.1250 1438.3862 0.0000 0.0000 1766.9962 -7358.3336 304.3618 -9125.3298 -7359.7936 299.2015 81.4305 143.4722 30100.5747 305.3624 354.6376
ENERGY: 600000 4.4828 14.2951 6.5090 0.0000 -10465.0615 1342.0105 0.0000 0.0000 1666.9306 -7430.8334 287.1257 -9097.7640 -7377.9112 298.0063 -707.4855 -619.5824 30390.0111 61.1184 123.2629
ENERGY: 900000 2.0693 12.6978 7.5432 0.0000 -10537.5190 1413.9445 0.0000 0.0000 1707.2309 -7394.0333 294.0673 -9101.2642 -7378.7528 297.6853 182.7548 306.4142 29858.1808 50.3942 117.9858
ENERGY: 1200000 4.5961 13.7118 6.6962 0.0000 -10441.9951 1331.6246 0.0000 0.0000 1760.5146 -7324.8517 303.2453 -9085.3663 -7380.2936 297.7250 -582.9736 -538.2348 30389.9249 -44.1913 26.1236
ENERGY: 1500000 4.0016 10.5733 7.5839 0.0000 -10514.8791 1426.9562 0.0000 0.0000 1754.4323 -7311.3319 302.1977 -9065.7642 -7372.4452 298.2898 277.9506 316.5546 30105.1500 -89.3939 -21.0017
TCL: Running FEP window  18: Lambda1 0.8500000000000002 Lambda2 0.9000000000000002 [dLambda 0.050000000000000044]
TCL: Setting parameter firsttimestep to 0
TCL: Setting parameter alchLambda to 0.8500000000000002
Info: NONBONDED TABLE R-SQUARED SPACING: 0.0625
Info: NONBONDED TABLE SIZE: 705 POINTS
TCL: Setting parameter alchLambda2 to 0.9000000000000002
Info: NONBONDED TABLE R-SQUARED SPACING: 0.0625
Info: NONBONDED TABLE SIZE: 705 POINTS
TCL: Running for 1500000 steps
ETITLE: TS BOND ANGLE DIHED IMPRP ELECT VDW BOUNDARY MISC KINETIC TOTAL TEMP POTENTIAL TOTALAVG TEMPAVG PRESSURE GPRESSURE VOLUME PRESSAVG GPRESSAVG
ENERGY: 0 4.0016 10.5733 7.5839 0.0000 -10515.6444 1427.8285 0.0000 0.0000 1753.5529 -7312.1042 302.0462 -9065.6571 -7312.1042 302.0462 255.6546 340.7776 30105.1500 255.6546 340.7776
ENERGY: 300000 2.5221 12.8412 6.1932 0.0000 -10519.0216 1401.9762 0.0000 0.0000 1757.7125 -7337.7765 302.7627 -9095.4889 -7356.3757 300.2952 215.3718 273.4106 29578.9690 -48.3756 19.9120
ENERGY: 600000 2.7720 11.5592 6.9496 0.0000 -10589.6995 1400.2367 0.0000 0.0000 1735.8128 -7432.3691 298.9905 -9168.1819 -7360.3978 299.3060 -17.3770 -33.4595 29650.0328 21.1731 77.8208
ENERGY: 900000 2.8226 10.3923 5.8358 0.0000 -10647.9143 1444.7994 0.0000 0.0000 1761.6243 -7422.4399 303.4365 -9184.0642 -7374.5479 299.7518 242.0127 274.8954 29617.2621 -10.7975 51.7861
ENERGY: 1200000 1.1667 10.2175 9.0581 0.0000 -10565.5474 1425.3444 0.0000 0.0000 1761.0790 -7358.6817 303.3425 -9119.7607 -7378.5661 299.6922 258.7673 368.9684 29602.3541 -16.2738 53.7344
ENERGY: 1500000 2.3851 15.4704 6.4993 0.0000 -10605.3232 1414.8331 0.0000 0.0000 1761.5338 -7404.6014 303.4209 -9166.1352 -7376.2612 300.7088 184.9690 244.5559 29432.9171 -27.1646 43.5459
TCL: Running FEP window  19: Lambda1 0.9000000000000002 Lambda2 0.9500000000000003 [dLambda 0.050000000000000044]
TCL: Setting parameter firsttimestep to 0
TCL: Setting parameter alchLambda to 0.9000000000000002
Info: NONBONDED TABLE R-SQUARED SPACING: 0.0625
Info: NONBONDED TABLE SIZE: 705 POINTS
TCL: Setting parameter alchLambda2 to 0.9500000000000003
Info: NONBONDED TABLE R-SQUARED SPACING: 0.0625
Info: NONBONDED TABLE SIZE: 705 POINTS
TCL: Running for 1500000 steps
ETITLE: TS BOND ANGLE DIHED IMPRP ELECT VDW BOUNDARY MISC KINETIC TOTAL TEMP POTENTIAL TOTALAVG TEMPAVG PRESSURE GPRESSURE VOLUME PRESSAVG GPRESSAVG
ENERGY: 0 2.3851 15.4704 6.4993 0.0000 -10606.5438 1415.2931 0.0000 0.0000 1760.6533 -7406.2426 303.2692 -9166.8958 -7406.2426 303.2692 186.5968 265.6677 29432.9171 186.5968 265.6677
ENERGY: 300000 1.3367 8.8534 8.9501 0.0000 -10621.5385 1542.1768 0.0000 0.0000 1712.8726 -7347.3488 295.0391 -9060.2215 -7402.5814 297.3041 1143.4996 1213.1893 29813.7309 564.2917 642.6481
ENERGY: 600000 1.2489 13.7831 5.5247 0.0000 -10447.6309 1377.8665 0.0000 0.0000 1735.3347 -7313.8730 298.9082 -9049.2077 -7356.2717 298.2729 -195.2924 -90.8318 30107.2277 425.0119 505.1318
ENERGY: 900000 2.3934 13.9597 7.0114 0.0000 -10610.6379 1463.2393 0.0000 0.0000 1761.5553 -7362.4789 303.4246 -9124.0341 -7364.1433 298.5489 298.1055 310.5568 30234.1056 256.0484 335.0263
ENERGY: 1200000 1.0946 11.2580 5.6741 0.0000 -10657.7496 1490.4041 0.0000 0.0000 1727.8158 -7421.5029 297.6130 -9149.3187 -7373.0701 298.5013 773.0654 830.6424 29570.4766 193.1212 266.0123
ENERGY: 1500000 2.9712 8.1633 5.8986 0.0000 -10770.7855 1555.0605 0.0000 0.0000 1755.4939 -7443.1979 302.3805 -9198.6918 -7381.9865 298.6348 951.2057 1040.7345 29559.3721 172.8944 244.0275
TCL: Running FEP window  20: Lambda1 0.9500000000000003 Lambda2 1.0    [dLambda 0.04999999999999971]
TCL: Setting parameter firsttimestep to 0
TCL: Setting parameter alchLambda to 0.9500000000000003
Info: NONBONDED TABLE R-SQUARED SPACING: 0.0625
Info: NONBONDED TABLE SIZE: 705 POINTS
TCL: Setting parameter alchLambda2 to 1.0
Info: NONBONDED TABLE R-SQUARED SPACING: 0.0625
Info: NONBONDED TABLE SIZE: 705 POINTS
TCL: Running for 1500000 steps
ETITLE: TS BOND ANGLE DIHED IMPRP ELECT VDW BOUNDARY MISC KINETIC TOTAL TEMP POTENTIAL TOTALAVG TEMPAVG PRESSURE GPRESSURE VOLUME PRESSAVG GPRESSAVG
ENERGY: 0 2.9712 8.1634 5.8986 0.0000 -10771.6439 1556.3121 0.0000 0.0000 1754.6062 -7443.6925 302.2276 -9198.2987 -7443.6925 302.2276 981.3627 1077.1316 29559.3721 981.3627 1077.1316
ENERGY: 300000 3.9783 15.3357 9.1064 0.0000 -10548.3328 1388.3866 0.0000 0.0000 1814.6185 -7316.9074 312.5646 -9131.5258 -7352.9791 304.1918 -383.8782 -318.6394 30078.4242 142.1630 192.0149
ENERGY: 600000 2.7146 13.1194 6.4322 0.0000 -10466.5729 1315.1196 0.0000 0.0000 1745.6193 -7383.5679 300.6796 -9129.1872 -7369.3378 302.1146 -786.1782 -741.0796 29962.3532 -49.5997 9.0079
ENERGY: 900000 2.1919 12.5495 7.2358 0.0000 -10454.7769 1370.3034 0.0000 0.0000 1777.7979 -7284.6983 306.2224 -9062.4963 -7369.1553 301.0101 -54.2712 -2.6218 29667.3011 -4.4629 56.4268
ENERGY: 1200000 2.1471 8.8072 5.8737 0.0000 -10432.8458 1362.7068 0.0000 0.0000 1749.1214 -7304.1897 301.2829 -9053.3110 -7357.8184 300.8937 -294.0379 -243.5321 30286.7320 63.2333 123.7758
ENERGY: 1500000 0.9785 8.6731 6.2666 0.0000 -10473.9556 1387.8797 0.0000 0.0000 1799.1354 -7271.0223 309.8977 -9070.1577 -7358.3061 300.9839 -121.8649 -44.4212 30178.2768 43.2897 110.7000
TCL: Exiting due to exit command.
