Info: SIMULATION PARAMETERS:
Info: TIMESTEP               2
Info: NUMBER OF STEPS        0
Info: STEPS PER CYCLE        10
Info: PERIODIC CELL BASIS 1  32.3444 0 0
Info: PERIODIC CELL BASIS 2  0 29.522 0
Info: PERIODIC CELL BASIS 3  0 0 31.997
Info: PERIODIC CELL CENTER   0 0 0
Info: WRAPPING WATERS AROUND PERIODIC BOUNDARIES ON OUTPUT.
Info: WRAPPING ALL CLUSTERS AROUND PERIODIC BOUNDARIES ON OUTPUT.
Info: FIRST LDB TIMESTEP     50
Info: LAST LDB TIMESTEP     -1
Info: HOM BACKGROUND SCALING 1
Info: PME BACKGROUND SCALING 1
Info: MIN ATOMS PER PATCH    40
Info: EMPTY PATCH LOAD       40 ATOMS
Info: VELOCITY FILE          mobley_2099370_equil.vel
Info: CENTER OF MASS MOVING INITIALLY? NO
Info: DIELECTRIC             1
Info: EXCLUDE                SCALED ONE-FOUR
Info: 1-4 ELECTROSTATICS SCALED BY 0.833333
Info: MODIFIED 1-4 VDW PARAMETERS WILL BE USED
Info: DCD FILENAME           mobley_2099370_prod.dcd
Info: DCD FREQUENCY          100000
Info: DCD FIRST STEP         100000
Info: DCD FILE WILL CONTAIN UNIT CELL DATA
Info: XST FILENAME           mobley_2099370_prod.xst
Info: XST FREQUENCY          100000
Info: NO VELOCITY DCD OUTPUT
Info: NO FORCE DCD OUTPUT
Info: OUTPUT FILENAME        mobley_2099370_prod
Info: BINARY OUTPUT FILES WILL BE USED
Info: RESTART FILENAME       mobley_2099370_prod.restart
Info: RESTART FREQUENCY      100000
Info: BINARY RESTART FILES WILL BE USED
Info: CUTOFF                 9
Info: PAIRLIST DISTANCE      11
Info: PAIRLIST SHRINK RATE   0.01
Info: PAIRLIST GROW RATE     0.01
Info: PAIRLIST TRIGGER       0.3
Info: PAIRLISTS PER CYCLE    2
Info: PAIRLISTS ENABLED
Info: MARGIN                 2
Info: HYDROGEN GROUP CUTOFF  2.5
Info: PATCH DIMENSION        15.5
Info: ENERGY OUTPUT STEPS    100000
Info: ENERGY EVALUATION STEPS    100000
Info: OUTPUT ENERGY PRECISION 4
Info: CROSSTERM ENERGY INCLUDED IN DIHEDRAL
Info: TIMING OUTPUT STEPS    1000000
Info: PRESSURE OUTPUT STEPS  100000
Info: ALCHEMICAL FEP ON
Info: FEP CURRENT LAMBDA VALUE     1
Info: FEP COMPARISON LAMBDA VALUE  0.95
Info: FEP INTRA-ALCHEMICAL NON-BONDED INTERACTIONS WILL BE RETAINED
Info: FEP INTRA-ALCHEMICAL BONDED INTERACTIONS WILL BE RETAINED
Info: FEP VDW SHIFTING COEFFICIENT 5
Info: FEP ELEC. ACTIVE FOR ANNIHILATED PARTICLES BETWEEN LAMBDA = 0 AND LAMBDA = 0.5
Info: FEP ELEC. ACTIVE FOR EXNIHILATED PARTICLES BETWEEN LAMBDA = 0.5 AND LAMBDA = 1
Info: FEP VDW ACTIVE FOR ANNIHILATED PARTICLES BETWEEN LAMBDA = 0 AND LAMBDA = 1
Info: FEP VDW ACTIVE FOR EXNIHILATED PARTICLES BETWEEN LAMBDA = 0 AND LAMBDA = 1
Info: FEP BOND ACTIVE FOR ANNIHILATED PARTICLES BETWEEN LAMBDA = 1 AND LAMBDA = 1
Info: FEP BOND ACTIVE FOR EXNIHILATED PARTICLES BETWEEN LAMBDA = 0 AND LAMBDA = 0
Info: LANGEVIN DYNAMICS ACTIVE
Info: LANGEVIN TEMPERATURE   300
Info: LANGEVIN USING BBK INTEGRATOR
Info: LANGEVIN DAMPING COEFFICIENT IS 1 INVERSE PS
Info: LANGEVIN DYNAMICS APPLIED TO HYDROGENS
Info: LANGEVIN PISTON PRESSURE CONTROL ACTIVE
Info:        TARGET PRESSURE IS 1.01325 BAR
Info:     OSCILLATION PERIOD IS 50 FS
Info:             DECAY TIME IS 25 FS
Info:     PISTON TEMPERATURE IS 300 K
Info:       PRESSURE CONTROL IS GROUP-BASED
Info:    INITIAL STRAIN RATE IS 1.02208e-05 1.02208e-05 1.02208e-05
Info:       CELL FLUCTUATION IS ISOTROPIC
Info: PARTICLE MESH EWALD (PME) ACTIVE
Info: PME TOLERANCE               1e-06
Info: PME EWALD COEFFICIENT       0.348832
Info: PME INTERPOLATION ORDER     4
Info: PME GRID DIMENSIONS         36 32 32
Info: PME MAXIMUM GRID SPACING    1
Info: PME CALCULATION WILL BE PERFORMED ON GPU
Info: FULL ELECTROSTATIC EVALUATION FREQUENCY      2
Info: USING VERLET I (r-RESPA) MTS SCHEME.
Info: C1 SPLITTING OF LONG RANGE ELECTROSTATICS
Info: PLACING ATOMS IN PATCHES BY HYDROGEN GROUPS
Info: RIGID BONDS TO HYDROGEN : ALL
Info:         ERROR TOLERANCE : 1e-08
Info:          MAX ITERATIONS : 100
Info: RIGID WATER USING SETTLE ALGORITHM
Info: RANDOM NUMBER SEED     1743999316
Info: USE HYDROGEN BONDS?    NO
Info: Using AMBER format force field!
Info: AMBER PARM FILE        mobley_2099370.prmtop
Info: COORDINATE PDB         mobley_2099370.pdb
Info: Exclusions will be read from PARM file!
Info: SCNB (VDW SCALING)     2
Info: USING ARITHMETIC MEAN TO COMBINE L-J SIGMA PARAMETERS
Info: BINARY COORDINATES     mobley_2099370_equil.coor
Info: SUMMARY OF PARAMETERS:
Info: 12 BONDS
Info: 17 ANGLES
Info:   17 HARMONIC
Info:   0 COSINE-BASED
Info: 12 DIHEDRAL
Info: 0 IMPROPER
Info: 0 CROSSTERM
Info: 0 VDW
Info: 36 VDW_PAIRS
Info: 0 NBTHOLE_PAIRS
Info: To read alchdata from file: mobley_2099370.pdb
Info: To read alchflag data from column: 5
Info: STRUCTURE SUMMARY:
Info: 2976 ATOMS
Info: 2977 BONDS
Info: 55 ANGLES
Info: 96 DIHEDRALS
Info: 0 IMPROPERS
Info: 0 CROSSTERMS
Info: 3105 EXCLUSIONS
Info: 2957 RIGID BONDS
Info: ALCH: 0 ATOMS TO DISAPPEAR IN FINAL STATE
Info: ALCH: 33 ATOMS TO APPEAR IN FINAL STATE
Info: 5971 DEGREES OF FREEDOM
Info: 1000 HYDROGEN GROUPS
Info: 4 ATOMS IN LARGEST HYDROGEN GROUP
Info: 1000 MIGRATION GROUPS
Info: 4 ATOMS IN LARGEST MIGRATION GROUP
Info: TOTAL MASS = 17928 amu
Info: TOTAL CHARGE = -0.000199955 e
Info: MASS DENSITY = 0.974399 g/cm^3
Info: ATOM DENSITY = 0.0974045 atoms/A^3
Info: ADDED 0 IMPLICIT EXCLUSIONS
Info: NONBONDED TABLE R-SQUARED SPACING: 0.0625
Info: NONBONDED TABLE SIZE: 705 POINTS
Info: REMOVING COM VELOCITY -0.0471884 -0.0959445 0.0413283
Info: Use 3D box decompostion in PME FFT.
Info: Updated CUDA force table with 4096 elements.
Info: Updated CUDA LJ table with 8 x 8 elements.
Info: Found 30 unique exclusion lists needing 128 bytes
TCL: Running for 1500000 steps
ETITLE: TS BOND ANGLE DIHED IMPRP ELECT VDW BOUNDARY MISC KINETIC TOTAL TEMP POTENTIAL TOTALAVG TEMPAVG PRESSURE GPRESSURE VOLUME PRESSAVG GPRESSAVG
ENERGY: 0 6.2039 12.4565 11.9123 0.0000 -10840.8848 1498.1005 0.0000 0.0000 1810.6433 -7501.5683 305.1941 -9312.2116 -7501.5683 305.1941 361.7299 463.0349 30552.9895 361.7299 463.0349
ENERGY: 300000 10.4436 7.8883 12.3104 0.0000 -10752.2361 1489.9366 0.0000 0.0000 1782.4738 -7449.1834 300.4460 -9231.6572 -7506.6035 300.8639 351.6168 387.0235 30673.0679 -106.2974 -48.1570
ENERGY: 600000 7.6581 10.9684 10.1999 0.0000 -10772.7532 1492.6566 0.0000 0.0000 1672.5314 -7578.7386 281.9146 -9251.2701 -7506.7102 298.0163 823.3966 856.1395 30416.2928 105.8758 171.8795
ENERGY: 900000 7.5410 8.6830 12.2261 0.0000 -10740.2579 1435.1446 0.0000 0.0000 1840.8564 -7435.8067 310.2867 -9276.6631 -7494.5564 300.2018 -13.9740 88.2018 30915.6128 116.0550 183.9119
ENERGY: 1200000 10.1272 8.8406 12.7638 0.0000 -10615.2930 1366.8617 0.0000 0.0000 1854.3016 -7362.3981 312.5530 -9216.6997 -7475.0939 301.1318 -627.6277 -572.5162 31499.5335 7.7598 70.7637
ENERGY: 1500000 6.8439 13.0735 13.8251 0.0000 -10619.1626 1419.8581 0.0000 0.0000 1787.3816 -7378.1804 301.2733 -9165.5620 -7470.2550 301.1600 177.7428 188.2338 30964.7587 -24.6695 37.4625
TCL: Running FEP window   2: Lambda1 0.95   Lambda2 0.8999999999999999 [dLambda -0.050000000000000044]
TCL: Setting parameter firsttimestep to 0
TCL: Setting parameter alchLambda to 0.95
Info: NONBONDED TABLE R-SQUARED SPACING: 0.0625
Info: NONBONDED TABLE SIZE: 705 POINTS
TCL: Setting parameter alchLambda2 to 0.8999999999999999
Info: NONBONDED TABLE R-SQUARED SPACING: 0.0625
Info: NONBONDED TABLE SIZE: 705 POINTS
TCL: Running for 1500000 steps
ETITLE: TS BOND ANGLE DIHED IMPRP ELECT VDW BOUNDARY MISC KINETIC TOTAL TEMP POTENTIAL TOTALAVG TEMPAVG PRESSURE GPRESSURE VOLUME PRESSAVG GPRESSAVG
ENERGY: 0 6.8439 13.0735 13.8251 0.0000 -10615.0006 1419.1414 0.0000 0.0000 1786.5101 -7375.6065 301.1264 -9162.1166 -7375.6065 301.1264 98.0762 158.8412 30964.7587 98.0762 158.8412
ENERGY: 300000 2.7351 10.8843 9.9076 0.0000 -10918.0259 1533.5988 0.0000 0.0000 1799.5317 -7561.3684 303.3212 -9360.9002 -7473.2818 301.1779 536.3206 607.4727 30532.6953 50.0947 124.9012
ENERGY: 600000 4.9930 14.1454 11.2640 0.0000 -10631.4437 1394.3085 0.0000 0.0000 1794.2817 -7412.4511 302.4363 -9206.7328 -7469.2612 301.8187 -345.8133 -324.0244 31055.8020 -236.7590 -173.8530
ENERGY: 900000 6.2620 13.3223 9.1400 0.0000 -10791.2999 1433.8753 0.0000 0.0000 1783.6539 -7545.0463 300.6449 -9328.7002 -7492.0540 301.1826 -645.1329 -505.7439 31351.4212 -311.6089 -236.6324
ENERGY: 1200000 4.0946 12.4201 11.4226 0.0000 -10859.8163 1466.2144 0.0000 0.0000 1768.1479 -7597.5167 298.0313 -9365.6646 -7496.0018 301.3649 48.2685 129.3936 30306.1122 -331.5559 -259.3125
ENERGY: 1500000 6.3879 12.7128 11.5602 0.0000 -10789.8712 1469.3526 0.0000 0.0000 1807.8888 -7481.9689 304.7299 -9289.8577 -7504.2227 301.0780 62.4560 155.7702 30768.6820 -236.9182 -165.7522
TCL: Running FEP window   3: Lambda1 0.8999999999999999 Lambda2 0.8499999999999999 [dLambda -0.050000000000000044]
TCL: Setting parameter firsttimestep to 0
TCL: Setting parameter alchLambda to 0.8999999999999999
Info: NONBONDED TABLE R-SQUARED SPACING: 0.0625
Info: NONBONDED TABLE SIZE: 705 POINTS
TCL: Setting parameter alchLambda2 to 0.8499999999999999
Info: NONBONDED TABLE R-SQUARED SPACING: 0.0625
Info: NONBONDED TABLE SIZE: 705 POINTS
TCL: Running for 1500000 steps
ETITLE: TS BOND ANGLE DIHED IMPRP ELECT VDW BOUNDARY MISC KINETIC TOTAL TEMP POTENTIAL TOTALAVG TEMPAVG PRESSURE GPRESSURE VOLUME PRESSAVG GPRESSAVG
ENERGY: 0 6.3879 12.7128 11.5602 0.0000 -10785.1005 1468.5609 0.0000 0.0000 1806.9822 -7478.8965 304.5771 -9285.8787 -7478.8965 304.5771 55.2907 135.2878 30768.6820 55.2907 135.2878
ENERGY: 300000 4.1194 11.5477 14.4197 0.0000 -10786.5577 1424.2576 0.0000 0.0000 1812.0250 -7520.1884 305.4271 -9332.2134 -7510.3840 302.2441 -81.7653 -49.4225 30422.9355 64.2744 107.6756
ENERGY: 600000 10.2665 9.1000 9.7927 0.0000 -10766.0119 1456.9937 0.0000 0.0000 1787.3977 -7492.4613 301.2760 -9279.8590 -7484.3526 301.4125 -41.4525 6.8894 30782.0981 -11.3794 41.3904
ENERGY: 900000 4.8039 12.7429 19.5435 0.0000 -10694.5899 1423.1610 0.0000 0.0000 1765.2978 -7469.0407 297.5509 -9234.3385 -7481.3663 300.8772 -102.3005 -93.5129 30879.9803 -53.0563 -5.3855
ENERGY: 1200000 5.7005 7.2867 12.6318 0.0000 -10640.8035 1397.4227 0.0000 0.0000 1753.5013 -7464.2605 295.5626 -9217.7618 -7480.0339 299.8784 -351.8630 -322.7710 30990.3114 -116.6569 -68.1195
ENERGY: 1500000 6.8952 6.7055 14.4926 0.0000 -10857.6268 1517.2003 0.0000 0.0000 1739.0249 -7573.3083 293.1225 -9312.3332 -7492.1708 299.0524 226.6411 310.2235 30600.2758 16.1281 64.4311
TCL: Running FEP window   4: Lambda1 0.8499999999999999 Lambda2 0.7999999999999998 [dLambda -0.050000000000000044]
TCL: Setting parameter firsttimestep to 0
TCL: Setting parameter alchLambda to 0.8499999999999999
Info: NONBONDED TABLE R-SQUARED SPACING: 0.0625
Info: NONBONDED TABLE SIZE: 705 POINTS
TCL: Setting parameter alchLambda2 to 0.7999999999999998
Info: NONBONDED TABLE R-SQUARED SPACING: 0.0625
Info: NONBONDED TABLE SIZE: 705 POINTS
TCL: Running for 1500000 steps
ETITLE: TS BOND ANGLE DIHED IMPRP ELECT VDW BOUNDARY MISC KINETIC TOTAL TEMP POTENTIAL TOTALAVG TEMPAVG PRESSURE GPRESSURE VOLUME PRESSAVG GPRESSAVG
ENERGY: 0 6.8952 6.7055 14.4926 0.0000 -10852.6924 1515.9146 0.0000 0.0000 1738.1780 -7570.5065 292.9797 -9308.6846 -7570.5065 292.9797 203.0824 286.3273 30600.2758 203.0824 286.3273
ENERGY: 300000 5.5450 9.6090 15.7939 0.0000 -10694.4810 1454.1233 0.0000 0.0000 1823.7370 -7385.6727 307.4012 -9209.4098 -7472.6198 302.3385 162.0970 221.7024 31211.6671 -136.9850 -70.2808
ENERGY: 600000 6.6934 11.2132 11.4034 0.0000 -10545.2591 1406.8977 0.0000 0.0000 1783.4526 -7325.5988 300.6110 -9109.0514 -7444.3176 300.1776 -97.6805 12.2611 30767.7631 -168.6976 -86.5369
ENERGY: 900000 4.2832 11.9613 13.5836 0.0000 -10736.8768 1494.7763 0.0000 0.0000 1795.8610 -7416.4114 302.7025 -9212.2725 -7453.9380 300.0466 512.5255 562.2892 31031.0463 -100.2837 -28.4529
ENERGY: 1200000 7.8105 9.2072 12.8368 0.0000 -10754.1204 1468.5235 0.0000 0.0000 1711.3219 -7544.4204 288.4530 -9255.7423 -7448.0968 300.6480 334.2463 418.9900 30213.2592 -80.8362 -17.4753
ENERGY: 1500000 5.8543 8.5890 13.6520 0.0000 -10784.9343 1500.6433 0.0000 0.0000 1789.0484 -7467.1474 301.5542 -9256.1958 -7459.6691 300.4811 370.5881 473.4797 30508.2534 -157.0954 -90.4075
TCL: Running FEP window   5: Lambda1 0.7999999999999998 Lambda2 0.7499999999999998 [dLambda -0.050000000000000044]
TCL: Setting parameter firsttimestep to 0
TCL: Setting parameter alchLambda to 0.7999999999999998
Info: NONBONDED TABLE R-SQUARED SPACING: 0.0625
Info: NONBONDED TABLE SIZE: 705 POINTS
TCL: Setting parameter alchLambda2 to 0.7499999999999998
Info: NONBONDED TABLE R-SQUARED SPACING: 0.0625
Info: NONBONDED TABLE SIZE: 705 POINTS
TCL: Running for 1500000 steps
ETITLE: TS BOND ANGLE DIHED IMPRP ELECT VDW BOUNDARY MISC KINETIC TOTAL TEMP POTENTIAL TOTALAVG TEMPAVG PRESSURE GPRESSURE VOLUME PRESSAVG GPRESSAVG
ENERGY: 0 5.8543 8.5890 13.6520 0.0000 -10781.1261 1500.1884 0.0000 0.0000 1788.1647 -7464.6777 301.4053 -9252.8424 -7464.6777 301.4053 378.6855 463.5791 30508.2534 378.6855 463.5791
ENERGY: 300000 12.2815 17.2942 12.8503 0.0000 -10714.9326 1433.4890 0.0000 0.0000 1735.7278 -7503.2898 292.5667 -9239.0175 -7461.1291 298.6968 -183.5871 -156.8921 30385.7152 7.6258 67.4839
ENERGY: 600000 7.1423 17.6834 17.6942 0.0000 -10699.0614 1402.3858 0.0000 0.0000 1780.8699 -7473.2858 300.1757 -9254.1557 -7469.8933 299.0317 135.0235 182.6194 30028.5636 24.3376 81.1719
ENERGY: 900000 6.0135 10.2393 17.2273 0.0000 -10686.3464 1430.5019 0.0000 0.0000 1716.3152 -7506.0493 289.2946 -9222.3644 -7476.7209 298.7844 -7.5596 30.5169 30563.7918 -12.5703 43.8283
ENERGY: 1200000 6.9383 13.1165 14.6732 0.0000 -10720.5063 1403.6849 0.0000 0.0000 1763.6274 -7518.4660 297.2694 -9282.0934 -7469.7078 299.0019 -555.0966 -465.6070 30980.7200 -160.7090 -99.0784
ENERGY: 1500000 14.5708 9.9042 16.9664 0.0000 -10777.8375 1408.4773 0.0000 0.0000 1734.8492 -7593.0697 292.4186 -9327.9189 -7477.0498 298.2676 -865.2961 -737.1408 30174.7626 -268.9367 -197.8856
TCL: Running FEP window   6: Lambda1 0.7499999999999998 Lambda2 0.6999999999999997 [dLambda -0.050000000000000044]
TCL: Setting parameter firsttimestep to 0
TCL: Setting parameter alchLambda to 0.7499999999999998
Info: NONBONDED TABLE R-SQUARED SPACING: 0.0625
Info: NONBONDED TABLE SIZE: 705 POINTS
TCL: Setting parameter alchLambda2 to 0.6999999999999997
Info: NONBONDED TABLE R-SQUARED SPACING: 0.0625
Info: NONBONDED TABLE SIZE: 705 POINTS
TCL: Running for 1500000 steps
ETITLE: TS BOND ANGLE DIHED IMPRP ELECT VDW BOUNDARY MISC KINETIC TOTAL TEMP POTENTIAL TOTALAVG TEMPAVG PRESSURE GPRESSURE VOLUME PRESSAVG GPRESSAVG
ENERGY: 0 14.5708 9.9042 16.9664 0.0000 -10776.1602 1407.8505 0.0000 0.0000 1733.9684 -7592.8999 292.2702 -9326.8683 -7592.8999 292.2702 -851.2044 -762.6340 30174.7626 -851.2044 -762.6340
ENERGY: 300000 7.9127 14.8371 13.1303 0.0000 -10668.5147 1429.1382 0.0000 0.0000 1759.9814 -7443.5150 296.6548 -9203.4965 -7509.3198 295.0567 -285.0583 -252.5587 31199.2095 -403.2517 -330.0328
ENERGY: 600000 4.7507 11.9831 18.4335 0.0000 -10538.6424 1320.3413 0.0000 0.0000 1786.6743 -7396.4594 301.1540 -9183.1337 -7484.6935 295.1739 -718.2265 -679.6693 30918.3873 -341.0611 -280.9855
ENERGY: 900000 10.0517 11.4564 16.9901 0.0000 -10652.3734 1365.1656 0.0000 0.0000 1803.9606 -7444.7490 304.0678 -9248.7096 -7466.0226 298.1636 -701.1881 -665.5557 30746.3841 -254.3854 -192.8513
ENERGY: 1200000 9.3576 15.2602 17.4973 0.0000 -10626.2547 1385.0630 0.0000 0.0000 1797.2914 -7401.7852 302.9436 -9199.0766 -7465.7125 299.1372 -198.3651 -144.0797 30483.7140 -139.2995 -82.5132
ENERGY: 1500000 6.5039 9.9091 18.6871 0.0000 -10872.7544 1558.5442 0.0000 0.0000 1862.4506 -7416.6596 313.9266 -9279.1102 -7471.1893 300.3610 952.9953 1036.2692 30350.5167 -34.0356 26.5134
TCL: Running FEP window   7: Lambda1 0.6999999999999997 Lambda2 0.6499999999999997 [dLambda -0.050000000000000044]
TCL: Setting parameter firsttimestep to 0
TCL: Setting parameter alchLambda to 0.6999999999999997
Info: NONBONDED TABLE R-SQUARED SPACING: 0.0625
Info: NONBONDED TABLE SIZE: 705 POINTS
TCL: Setting parameter alchLambda2 to 0.6499999999999997
Info: NONBONDED TABLE R-SQUARED SPACING: 0.0625
Info: NONBONDED TABLE SIZE: 705 POINTS
TCL: Running for 1500000 steps
ETITLE: TS BOND ANGLE DIHED IMPRP ELECT VDW BOUNDARY MISC KINETIC TOTAL TEMP POTENTIAL TOTALAVG TEMPAVG PRESSURE GPRESSURE VOLUME PRESSAVG GPRESSAVG
ENERGY: 0 6.5039 9.9091 18.6871 0.0000 -10868.6881 1557.4919 0.0000 0.0000 1861.5577 -7414.5384 313.7761 -9276.0961 -7414.5384 313.7761 941.4354 1021.5878 30350.5167 941.4354 1021.5878
ENERGY: 300000 10.8684 16.2705 14.0860 0.0000 -10825.1815 1536.1016 0.0000 0.0000 1832.3933 -7415.4619 308.8602 -9247.8552 -7426.9501 308.0570 644.8563 762.3463 30422.8477 460.1872 529.1286
ENERGY: 600000 9.6811 9.6681 18.7404 0.0000 -10690.2690 1394.1952 0.0000 0.0000 1750.8499 -7507.1344 295.1156 -9257.9842 -7440.0653 305.0475 -488.6669 -442.9383 30797.1318 29.6698 91.8845
ENERGY: 900000 10.8291 13.0195 13.3777 0.0000 -10719.7036 1394.9030 0.0000 0.0000 1791.6914 -7495.8828 301.9997 -9287.5743 -7459.4300 304.1654 -304.1556 -241.9464 30428.5117 -132.8355 -68.1870
ENERGY: 1200000 10.0018 9.0332 14.2206 0.0000 -10705.8966 1395.2427 0.0000 0.0000 1733.6816 -7543.7167 292.2218 -9277.3983 -7464.9014 301.7926 -182.0764 -140.2569 30516.2586 -45.4124 17.4733
ENERGY: 1500000 9.5555 10.1957 17.7365 0.0000 -10764.1569 1451.0334 0.0000 0.0000 1811.7492 -7463.8866 305.3806 -9275.6358 -7465.5611 302.4123 -446.1981 -359.0318 30865.1223 -61.8400 7.5635
TCL: Running FEP window   8: Lambda1 0.6499999999999997 Lambda2 0.5999999999999996 [dLambda -0.050000000000000044]
TCL: Setting parameter firsttimestep to 0
TCL: Setting parameter alchLambda to 0.6499999999999997
Info: NONBONDED TABLE R-SQUARED SPACING: 0.0625
Info: NONBONDED TABLE SIZE: 705 POINTS
TCL: Setting parameter alchLambda2 to 0.5999999999999996
Info: NONBONDED TABLE R-SQUARED SPACING: 0.0625
Info: NONBONDED TABLE SIZE: 705 POINTS
TCL: Running for 1500000 steps
ETITLE: TS BOND ANGLE DIHED IMPRP ELECT VDW BOUNDARY MISC KINETIC TOTAL TEMP POTENTIAL TOTALAVG TEMPAVG PRESSURE GPRESSURE VOLUME PRESSAVG GPRESSAVG
ENERGY: 0 9.5556 10.1957 17.7365 0.0000 -10762.0688 1451.3475 0.0000 0.0000 1810.8936 -7462.3400 305.2363 -9273.2335 -7462.3400 305.2363 -440.7830 -368.3026 30865.1223 -440.7830 -368.3026
ENERGY: 300000 10.1726 12.3861 16.9442 0.0000 -10665.6114 1418.0139 0.0000 0.0000 1772.9796 -7435.1150 298.8457 -9208.0946 -7515.6058 296.4233 -253.1900 -230.0479 31078.2982 -121.0201 -37.0877
ENERGY: 600000 5.3576 11.2636 19.7968 0.0000 -10703.8719 1412.2923 0.0000 0.0000 1757.7495 -7497.4123 296.2786 -9255.1617 -7499.8985 299.1159 -105.1724 -58.2172 30740.1373 -72.7632 -5.2865
ENERGY: 900000 9.1393 9.1323 12.6154 0.0000 -10593.6226 1352.1530 0.0000 0.0000 1753.1660 -7457.4166 295.5060 -9210.5826 -7490.8499 298.4125 -1039.5878 -1014.6254 31128.3697 -151.0742 -95.2346
ENERGY: 1200000 14.9800 12.2196 14.9340 0.0000 -10898.2540 1512.4207 0.0000 0.0000 1826.0524 -7517.6474 307.7914 -9343.6998 -7494.6491 297.9003 175.9724 198.8443 30421.6544 -83.4929 -31.5102
ENERGY: 1500000 5.2580 15.5440 13.4769 0.0000 -10800.2916 1453.4205 0.0000 0.0000 1805.1043 -7507.4878 304.2605 -9312.5921 -7494.9019 298.9993 -79.7412 -2.7369 30395.4212 -121.4225 -66.4355
TCL: Running FEP window   9: Lambda1 0.5999999999999996 Lambda2 0.5499999999999996 [dLambda -0.050000000000000044]
TCL: Setting parameter firsttimestep to 0
TCL: Setting parameter alchLambda to 0.5999999999999996
Info: NONBONDED TABLE R-SQUARED SPACING: 0.0625
Info: NONBONDED TABLE SIZE: 705 POINTS
TCL: Setting parameter alchLambda2 to 0.5499999999999996
Info: NONBONDED TABLE R-SQUARED SPACING: 0.0625
Info: NONBONDED TABLE SIZE: 705 POINTS
TCL: Running for 1500000 steps
ETITLE: TS BOND ANGLE DIHED IMPRP ELECT VDW BOUNDARY MISC KINETIC TOTAL TEMP POTENTIAL TOTALAVG TEMPAVG PRESSURE GPRESSURE VOLUME PRESSAVG GPRESSAVG
ENERGY: 0 5.2580 15.5440 13.4769 0.0000 -10799.2217 1453.4948 0.0000 0.0000 1804.1750 -7507.2729 304.1039 -9311.4479 -7507.2729 304.1039 -96.3182 -15.4879 30395.4212 -96.3182 -15.4879
ENERGY: 300000 3.4032 14.2507 16.3592 0.0000 -10752.2453 1471.8768 0.0000 0.0000 1755.5953 -7490.7600 295.9155 -9246.3553 -7471.1668 302.7375 408.0679 498.4241 30151.6411 20.8318 79.1111
ENERGY: 600000 8.5684 10.9892 17.2180 0.0000 -10582.2024 1346.3176 0.0000 0.0000 1795.0723 -7404.0370 302.5696 -9199.1092 -7464.8139 302.0763 -791.6852 -690.9318 30884.7130 -4.1221 60.5888
ENERGY: 900000 6.6274 13.7983 14.8729 0.0000 -10526.7195 1338.1105 0.0000 0.0000 1835.1582 -7318.1523 309.3263 -9153.3105 -7436.5865 304.5045 -835.7324 -679.1158 31036.5058 -231.1067 -159.0586
ENERGY: 1200000 8.1978 13.3449 14.1088 0.0000 -10658.4009 1351.3015 0.0000 0.0000 1764.3688 -7507.0792 297.3943 -9271.4480 -7452.1814 303.2157 -920.8779 -894.4183 30744.8117 -240.8166 -184.1109
ENERGY: 1500000 6.6707 11.8628 14.2845 0.0000 -10713.8243 1432.5931 0.0000 0.0000 1801.3638 -7447.0494 303.6300 -9248.4133 -7458.1818 302.4996 -115.8645 -45.4454 30287.0753 -224.0587 -165.7106
TCL: Running FEP window  10: Lambda1 0.5499999999999996 Lambda2 0.4999999999999996 [dLambda -0.04999999999999999]
TCL: Setting parameter firsttimestep to 0
TCL: Setting parameter alchLambda to 0.5499999999999996
Info: NONBONDED TABLE R-SQUARED SPACING: 0.0625
Info: NONBONDED TABLE SIZE: 705 POINTS
TCL: Setting parameter alchLambda2 to 0.4999999999999996
Info: NONBONDED TABLE R-SQUARED SPACING: 0.0625
Info: NONBONDED TABLE SIZE: 705 POINTS
TCL: Running for 1500000 steps
ETITLE: TS BOND ANGLE DIHED IMPRP ELECT VDW BOUNDARY MISC KINETIC TOTAL TEMP POTENTIAL TOTALAVG TEMPAVG PRESSURE GPRESSURE VOLUME PRESSAVG GPRESSAVG
ENERGY: 0 6.6707 11.8628 14.2845 0.0000 -10711.8201 1431.4047 0.0000 0.0000 1800.5090 -7447.0884 303.4860 -9247.5974 -7447.0884 303.4860 -157.7493 -69.1395 30287.0753 -157.7493 -69.1395
ENERGY: 300000 6.5939 13.9438 12.8753 0.0000 -10643.3306 1360.2060 0.0000 0.0000 1746.2952 -7503.4165 294.3479 -9249.7116 -7498.7212 296.3960 -946.7667 -921.4743 31328.4988 -382.6434 -310.4795
ENERGY: 600000 3.0418 8.3700 16.2320 0.0000 -10948.1225 1548.3720 0.0000 0.0000 1808.0165 -7564.0902 304.7514 -9372.1067 -7496.6392 299.4114 731.8782 834.4851 29816.8867 -288.4453 -213.3891
ENERGY: 900000 7.8106 13.6356 17.7313 0.0000 -10762.6833 1480.7690 0.0000 0.0000 1781.6953 -7461.0415 300.3148 -9242.7368 -7484.5517 300.3857 223.5706 213.1351 30912.5863 -112.1153 -43.1624
ENERGY: 1200000 5.4041 15.8629 13.3675 0.0000 -10729.1217 1476.0930 0.0000 0.0000 1784.1205 -7434.2738 300.7236 -9218.3943 -7473.3906 300.0551 323.5502 375.6504 30724.3704 -64.8148 1.9677
ENERGY: 1500000 3.8568 10.6506 13.8624 0.0000 -10748.8165 1480.7365 0.0000 0.0000 1753.8051 -7485.9050 295.6138 -9239.7101 -7473.2448 299.9211 779.9195 830.8584 29974.6918 -119.4541 -58.0868
TCL: Running FEP window  11: Lambda1 0.4999999999999996 Lambda2 0.4499999999999996 [dLambda -0.04999999999999999]
TCL: Setting parameter firsttimestep to 0
TCL: Setting parameter alchLambda to 0.4999999999999996
Info: NONBONDED TABLE R-SQUARED SPACING: 0.0625
Info: NONBONDED TABLE SIZE: 705 POINTS
TCL: Setting parameter alchLambda2 to 0.4499999999999996
Info: NONBONDED TABLE R-SQUARED SPACING: 0.0625
Info: NONBONDED TABLE SIZE: 705 POINTS
TCL: Running for 1500000 steps
ETITLE: TS BOND ANGLE DIHED IMPRP ELECT VDW BOUNDARY MISC KINETIC TOTAL TEMP POTENTIAL TOTALAVG TEMPAVG PRESSURE GPRESSURE VOLUME PRESSAVG GPRESSAVG
ENERGY: 0 3.8568 10.6506 13.8624 0.0000 -10748.5067 1480.5238 0.0000 0.0000 1752.8979 -7486.7151 295.4608 -9239.6130 -7486.7151 295.4608 738.6362 818.1610 29974.6918 738.6362 818.1610
ENERGY: 300000 8.7978 12.3825 11.1420 0.0000 -10697.7984 1407.3563 0.0000 0.0000 1822.2181 -7435.9017 307.1452 -9258.1198 -7490.9957 299.0184 -532.9902 -423.0710 30796.5313 -118.8810 -49.0988
ENERGY: 600000 7.2450 12.3062 13.9239 0.0000 -10855.9717 1528.1791 0.0000 0.0000 1813.7567 -7480.5608 305.7189 -9294.3175 -7500.2325 297.7386 676.8706 729.5561 30237.0076 32.2723 101.1832
ENERGY: 900000 5.8797 12.6541 14.2460 0.0000 -10673.3234 1436.2101 0.0000 0.0000 1777.3633 -7426.9702 299.5846 -9204.3335 -7494.7877 298.2198 133.2199 236.5364 30325.3699 -41.1088 28.2977
ENERGY: 1200000 3.4289 11.6503 16.5943 0.0000 -10709.5891 1461.4314 0.0000 0.0000 1791.4672 -7425.0170 301.9619 -9216.4843 -7486.6177 299.0089 249.6197 273.2562 30466.6556 -48.2538 7.5463
ENERGY: 1500000 5.5592 8.5388 16.5803 0.0000 -10801.3229 1497.6664 0.0000 0.0000 1737.6030 -7535.3752 292.8828 -9272.9782 -7485.7138 297.9660 143.1820 180.7588 30714.2662 -95.4007 -41.6288
TCL: Running FEP window  12: Lambda1 0.4499999999999996 Lambda2 0.39999999999999963 [dLambda -0.04999999999999999]
TCL: Setting parameter firsttimestep to 0
TCL: Setting parameter alchLambda to 0.4499999999999996
Info: NONBONDED TABLE R-SQUARED SPACING: 0.0625
Info: NONBONDED TABLE SIZE: 705 POINTS
TCL: Setting parameter alchLambda2 to 0.39999999999999963
Info: NONBONDED TABLE R-SQUARED SPACING: 0.0625
Info: NONBONDED TABLE SIZE: 705 POINTS
TCL: Running for 1500000 steps
ETITLE: TS BOND ANGLE DIHED IMPRP ELECT VDW BOUNDARY MISC KINETIC TOTAL TEMP POTENTIAL TOTALAVG TEMPAVG PRESSURE GPRESSURE VOLUME PRESSAVG GPRESSAVG
ENERGY: 0 5.5592 8.5388 16.5803 0.0000 -10801.3226 1498.6019 0.0000 0.0000 1736.7123 -7535.3301 292.7327 -9272.0424 -7535.3301 292.7327 88.4930 178.2247 30714.2662 88.4930 178.2247
ENERGY: 300000 4.9499 10.4172 17.6319 0.0000 -10653.7083 1473.4378 0.0000 0.0000 1787.1756 -7360.0960 301.2385 -9147.2716 -7435.2715 300.9945 735.8672 765.7780 30395.5726 82.0956 164.6065
ENERGY: 600000 7.1930 9.9388 22.6827 0.0000 -10837.3968 1489.5569 0.0000 0.0000 1811.6965 -7496.3288 305.3717 -9308.0254 -7434.5864 302.2138 302.3044 387.4210 30032.1759 40.3894 128.3022
ENERGY: 900000 6.3627 8.9927 14.2567 0.0000 -10613.8718 1367.5954 0.0000 0.0000 1778.5875 -7438.0767 299.7910 -9216.6642 -7449.5082 302.2338 -530.0324 -434.3869 30769.2437 -54.3839 25.6606
ENERGY: 1200000 6.0966 14.9443 15.4049 0.0000 -10742.6472 1482.8758 0.0000 0.0000 1792.0867 -7431.2390 302.0663 -9223.3257 -7447.7932 301.8967 354.4758 433.8907 30379.9491 2.5143 78.3597
ENERGY: 1500000 7.0223 11.6242 11.2758 0.0000 -10718.9251 1434.2294 0.0000 0.0000 1797.3205 -7457.4529 302.9485 -9254.7734 -7440.1932 302.2832 128.9597 152.4004 30367.5282 -1.4606 66.5479
TCL: Running FEP window  13: Lambda1 0.39999999999999963 Lambda2 0.34999999999999964 [dLambda -0.04999999999999999]
TCL: Setting parameter firsttimestep to 0
TCL: Setting parameter alchLambda to 0.39999999999999963
Info: NONBONDED TABLE R-SQUARED SPACING: 0.0625
Info: NONBONDED TABLE SIZE: 705 POINTS
TCL: Setting parameter alchLambda2 to 0.34999999999999964
Info: NONBONDED TABLE R-SQUARED SPACING: 0.0625
Info: NONBONDED TABLE SIZE: 705 POINTS
TCL: Running for 1500000 steps
ETITLE: TS BOND ANGLE DIHED IMPRP ELECT VDW BOUNDARY MISC KINETIC TOTAL TEMP POTENTIAL TOTALAVG TEMPAVG PRESSURE GPRESSURE VOLUME PRESSAVG GPRESSAVG
ENERGY: 0 7.0223 11.6242 11.2758 0.0000 -10718.9256 1433.8819 0.0000 0.0000 1796.4763 -7458.6452 302.8062 -9255.1215 -7458.6452 302.8062 58.2826 134.3182 30367.5282 58.2826 134.3182
ENERGY: 300000 4.8483 5.2586 16.2776 0.0000 -10741.7924 1421.9321 0.0000 0.0000 1790.5723 -7502.9034 301.8111 -9293.4757 -7507.3769 301.0232 -338.7098 -231.5425 30470.2469 -324.5902 -245.5549
ENERGY: 600000 8.2173 11.7076 11.9639 0.0000 -10886.9169 1520.7528 0.0000 0.0000 1759.4558 -7574.8196 296.5662 -9334.2754 -7498.9448 299.2703 154.1160 266.1947 30390.4586 -260.9065 -183.2800
ENERGY: 900000 7.9151 14.1208 19.2989 0.0000 -10682.8049 1414.9988 0.0000 0.0000 1738.2805 -7488.1909 292.9970 -9226.4713 -7489.7838 300.2251 -418.6123 -355.5958 30759.7426 -316.4302 -241.0350
ENERGY: 1200000 8.2621 12.7848 16.3224 0.0000 -10754.9332 1459.9190 0.0000 0.0000 1769.3664 -7488.2784 298.2367 -9257.6448 -7490.7179 299.7934 172.7262 209.3934 30635.0613 -148.1995 -80.1122
ENERGY: 1500000 6.5048 15.4652 15.1519 0.0000 -10750.5114 1438.2858 0.0000 0.0000 1759.9518 -7515.1519 296.6498 -9275.1037 -7488.4901 299.7304 183.3016 151.1065 30275.7989 -143.4688 -75.6743
TCL: Running FEP window  14: Lambda1 0.34999999999999964 Lambda2 0.29999999999999966 [dLambda -0.04999999999999999]
TCL: Setting parameter firsttimestep to 0
TCL: Setting parameter alchLambda to 0.34999999999999964
Info: NONBONDED TABLE R-SQUARED SPACING: 0.0625
Info: NONBONDED TABLE SIZE: 705 POINTS
TCL: Setting parameter alchLambda2 to 0.29999999999999966
Info: NONBONDED TABLE R-SQUARED SPACING: 0.0625
Info: NONBONDED TABLE SIZE: 705 POINTS
TCL: Running for 1500000 steps
ETITLE: TS BOND ANGLE DIHED IMPRP ELECT VDW BOUNDARY MISC KINETIC TOTAL TEMP POTENTIAL TOTALAVG TEMPAVG PRESSURE GPRESSURE VOLUME PRESSAVG GPRESSAVG
ENERGY: 0 6.5048 15.4652 15.1519 0.0000 -10750.5120 1438.4925 0.0000 0.0000 1759.0291 -7515.8685 296.4943 -9274.8976 -7515.8685 296.4943 61.3518 144.4262 30275.7989 61.3518 144.4262
ENERGY: 300000 4.4108 18.2549 13.9056 0.0000 -10707.6730 1489.8446 0.0000 0.0000 1773.2466 -7408.0105 298.8907 -9181.2571 -7485.3662 296.6120 614.8472 684.5295 30122.4619 382.5270 445.0365
ENERGY: 600000 9.8622 14.6249 17.2203 0.0000 -10706.6986 1406.1076 0.0000 0.0000 1760.0048 -7498.8788 296.6588 -9258.8836 -7472.6193 298.2359 -399.7104 -313.4729 30547.7485 145.2828 227.5641
ENERGY: 900000 9.2249 11.8713 13.9736 0.0000 -10610.4776 1399.9486 0.0000 0.0000 1849.9270 -7325.5323 311.8156 -9175.4593 -7448.8637 300.2209 -147.0090 -52.7182 30724.7816 118.7065 197.3215
ENERGY: 1200000 5.8237 10.9018 19.6170 0.0000 -10726.5785 1416.5811 0.0000 0.0000 1742.7679 -7530.8870 293.7534 -9273.6549 -7461.0770 299.1918 -425.7351 -343.8515 30490.9663 -1.1075 67.6976
ENERGY: 1500000 4.6133 10.9647 16.7675 0.0000 -10898.6382 1623.4755 0.0000 0.0000 1781.5060 -7461.3112 300.2829 -9242.8172 -7459.7315 299.6580 1701.7674 1786.2034 30129.3780 2.9488 70.2260
TCL: Running FEP window  15: Lambda1 0.29999999999999966 Lambda2 0.24999999999999967 [dLambda -0.04999999999999999]
TCL: Setting parameter firsttimestep to 0
TCL: Setting parameter alchLambda to 0.29999999999999966
Info: NONBONDED TABLE R-SQUARED SPACING: 0.0625
Info: NONBONDED TABLE SIZE: 705 POINTS
TCL: Setting parameter alchLambda2 to 0.24999999999999967
Info: NONBONDED TABLE R-SQUARED SPACING: 0.0625
Info: NONBONDED TABLE SIZE: 705 POINTS
TCL: Running for 1500000 steps
ETITLE: TS BOND ANGLE DIHED IMPRP ELECT VDW BOUNDARY MISC KINETIC TOTAL TEMP POTENTIAL TOTALAVG TEMPAVG PRESSURE GPRESSURE VOLUME PRESSAVG GPRESSAVG
ENERGY: 0 4.6133 10.9647 16.7675 0.0000 -10898.6384 1624.2634 0.0000 0.0000 1780.6169 -7461.4125 300.1330 -9242.0294 -7461.4125 300.1330 1689.9495 1780.7356 30129.3780 1689.9495 1780.7356
ENERGY: 300000 4.9552 17.4743 15.1963 0.0000 -10830.8507 1519.9762 0.0000 0.0000 1745.6382 -7527.6106 294.2372 -9273.2487 -7488.5800 300.8440 651.1702 687.3634 30123.0158 392.5643 474.2519
ENERGY: 600000 6.7919 10.9292 18.0430 0.0000 -10725.4392 1448.7540 0.0000 0.0000 1733.6511 -7507.2700 292.2167 -9240.9211 -7499.8428 298.2782 -97.3899 -53.2989 30717.5916 144.5819 221.0709
ENERGY: 900000 4.9347 10.6435 15.5399 0.0000 -10672.0679 1413.8904 0.0000 0.0000 1729.8947 -7497.1647 291.5835 -9227.0594 -7498.2620 297.0106 -305.0556 -252.5954 30894.6066 83.2356 153.0833
ENERGY: 1200000 5.8772 9.7422 15.9053 0.0000 -10711.6018 1429.5360 0.0000 0.0000 1800.9753 -7449.5658 303.5646 -9250.5411 -7485.8949 298.2386 -415.3098 -318.7067 30596.4561 -24.6698 48.0125
ENERGY: 1500000 4.6140 11.3761 14.3089 0.0000 -10823.0783 1513.7581 0.0000 0.0000 1784.3316 -7494.6895 300.7592 -9279.0211 -7479.1341 299.0350 431.4125 501.7970 30729.0943 -29.3424 39.1086
TCL: Running FEP window  16: Lambda1 0.24999999999999967 Lambda2 0.19999999999999968 [dLambda -0.04999999999999999]
TCL: Setting parameter firsttimestep to 0
TCL: Setting parameter alchLambda to 0.24999999999999967
Info: NONBONDED TABLE R-SQUARED SPACING: 0.0625
Info: NONBONDED TABLE SIZE: 705 POINTS
TCL: Setting parameter alchLambda2 to 0.19999999999999968
Info: NONBONDED TABLE R-SQUARED SPACING: 0.0625
Info: NONBONDED TABLE SIZE: 705 POINTS
TCL: Running for 1500000 steps
ETITLE: TS BOND ANGLE DIHED IMPRP ELECT VDW BOUNDARY MISC KINETIC TOTAL TEMP POTENTIAL TOTALAVG TEMPAVG PRESSURE GPRESSURE VOLUME PRESSAVG GPRESSAVG
ENERGY: 0 4.6140 11.3761 14.3089 0.0000 -10823.0785 1514.3645 0.0000 0.0000 1783.4376 -7494.9772 300.6085 -9278.4148 -7494.9772 300.6085 412.7977 498.3200 30729.0943 412.7977 498.3200
ENERGY: 300000 8.9659 11.5847 19.0383 0.0000 -10789.0211 1486.0000 0.0000 0.0000 1774.9653 -7488.4669 299.1804 -9263.4322 -7455.3995 301.4495 313.6714 292.3463 30144.2444 155.8134 199.1339
ENERGY: 600000 9.3935 16.4151 14.7473 0.0000 -10866.6800 1604.5466 0.0000 0.0000 1774.2588 -7447.3187 299.0614 -9221.5776 -7463.1520 301.5031 1314.5961 1292.8857 30306.3617 208.0481 239.0717
ENERGY: 900000 7.2156 10.9532 11.8503 0.0000 -10631.8896 1378.7381 0.0000 0.0000 1732.1356 -7490.9969 291.9612 -9223.1325 -7475.2137 299.2425 -388.7153 -276.6032 30125.2548 31.4162 67.4376
ENERGY: 1200000 12.1854 16.0029 16.0509 0.0000 -10748.0370 1385.8780 0.0000 0.0000 1773.5291 -7544.3906 298.9384 -9317.9197 -7469.6421 299.6277 -975.9609 -923.8731 30408.5872 5.8006 41.5458
ENERGY: 1500000 6.5273 13.3873 13.8785 0.0000 -10696.7832 1396.8664 0.0000 0.0000 1795.2299 -7470.8938 302.5961 -9266.1238 -7455.6419 301.0818 -370.5390 -350.0890 30269.2679 2.1160 41.5675
TCL: Running FEP window  17: Lambda1 0.19999999999999968 Lambda2 0.1499999999999997 [dLambda -0.04999999999999999]
TCL: Setting parameter firsttimestep to 0
TCL: Setting parameter alchLambda to 0.19999999999999968
Info: NONBONDED TABLE R-SQUARED SPACING: 0.0625
Info: NONBONDED TABLE SIZE: 705 POINTS
TCL: Setting parameter alchLambda2 to 0.1499999999999997
Info: NONBONDED TABLE R-SQUARED SPACING: 0.0625
Info: NONBONDED TABLE SIZE: 705 POINTS
TCL: Running for 1500000 steps
ETITLE: TS BOND ANGLE DIHED IMPRP ELECT VDW BOUNDARY MISC KINETIC TOTAL TEMP POTENTIAL TOTALAVG TEMPAVG PRESSURE GPRESSURE VOLUME PRESSAVG GPRESSAVG
ENERGY: 0 6.5273 13.3873 13.8785 0.0000 -10696.7814 1397.2259 0.0000 0.0000 1794.3317 -7471.4308 302.4447 -9265.7625 -7471.4308 302.4447 -443.3663 -356.1045 30269.2679 -443.3663 -356.1045
ENERGY: 300000 5.9373 13.1329 13.3400 0.0000 -10707.9256 1426.9087 0.0000 0.0000 1765.8380 -7482.7686 297.6420 -9248.6067 -7425.1237 302.4689 105.1518 151.4464 30340.3916 -107.9517 -52.5318
ENERGY: 600000 10.8984 12.7411 14.8037 0.0000 -10814.6807 1521.0553 0.0000 0.0000 1780.7283 -7474.4539 300.1518 -9255.1821 -7449.3142 301.0516 308.6246 401.6607 30246.2889 29.4859 99.7135
ENERGY: 900000 8.6650 14.4257 20.7664 0.0000 -10731.6581 1390.6533 0.0000 0.0000 1768.3648 -7528.7828 298.0679 -9297.1476 -7461.5646 300.8165 -495.7776 -462.5271 30230.7354 -33.0467 36.2470
ENERGY: 1200000 6.5770 9.5711 16.3788 0.0000 -10712.3239 1425.5271 0.0000 0.0000 1821.4276 -7432.8423 307.0119 -9254.2699 -7462.6152 300.4347 -148.7699 -104.2660 30020.0537 -42.0532 23.6376
ENERGY: 1500000 5.1470 13.5577 17.4559 0.0000 -10829.3111 1540.9401 0.0000 0.0000 1786.0570 -7466.1534 301.0500 -9252.2104 -7450.0380 300.8010 1065.1818 1077.2412 29860.5808 136.7642 195.3899
TCL: Running FEP window  18: Lambda1 0.1499999999999997 Lambda2 0.09999999999999969 [dLambda -0.05 ]
TCL: Setting parameter firsttimestep to 0
TCL: Setting parameter alchLambda to 0.1499999999999997
Info: NONBONDED TABLE R-SQUARED SPACING: 0.0625
Info: NONBONDED TABLE SIZE: 705 POINTS
TCL: Setting parameter alchLambda2 to 0.09999999999999969
Info: NONBONDED TABLE R-SQUARED SPACING: 0.0625
Info: NONBONDED TABLE SIZE: 705 POINTS
TCL: Running for 1500000 steps
ETITLE: TS BOND ANGLE DIHED IMPRP ELECT VDW BOUNDARY MISC KINETIC TOTAL TEMP POTENTIAL TOTALAVG TEMPAVG PRESSURE GPRESSURE VOLUME PRESSAVG GPRESSAVG
ENERGY: 0 5.1470 13.5577 17.4559 0.0000 -10829.3136 1540.9121 0.0000 0.0000 1785.1712 -7467.0697 300.9007 -9252.2409 -7467.0697 300.9007 983.6082 1068.5462 29860.5808 983.6082 1068.5462
ENERGY: 300000 4.4942 11.3052 20.3627 0.0000 -10659.4867 1422.5806 0.0000 0.0000 1794.5790 -7406.1649 302.4864 -9200.7439 -7437.3184 303.3411 32.5258 114.0895 30369.7536 18.3949 88.5255
ENERGY: 600000 12.0100 7.5144 21.4124 0.0000 -10732.9264 1429.9384 0.0000 0.0000 1761.5953 -7500.4559 296.9268 -9262.0512 -7471.1136 299.8629 -215.3629 -120.6835 29823.5972 -206.6731 -118.3049
ENERGY: 900000 12.7011 11.2758 16.7513 0.0000 -10752.5482 1434.7169 0.0000 0.0000 1778.0928 -7499.0103 299.7076 -9277.1031 -7474.9902 299.7782 -538.1699 -474.7668 30462.9908 -259.5792 -171.0515
ENERGY: 1200000 5.0041 18.4443 14.9668 0.0000 -10664.8498 1489.0621 0.0000 0.0000 1696.2224 -7441.1502 285.9079 -9137.3726 -7474.3080 299.3130 600.5261 630.4694 30543.7204 -108.1349 -31.2318
ENERGY: 1500000 6.0913 15.9446 17.0936 0.0000 -10755.4777 1452.9017 0.0000 0.0000 1807.9559 -7455.4905 304.7412 -9263.4464 -7469.0416 300.5718 -330.7169 -262.4019 30708.6704 -65.0784 9.9537
TCL: Running FEP window  19: Lambda1 0.09999999999999969 Lambda2 0.049999999999999684 [dLambda -0.05 ]
TCL: Setting parameter firsttimestep to 0
TCL: Setting parameter alchLambda to 0.09999999999999969
Info: NONBONDED TABLE R-SQUARED SPACING: 0.0625
Info: NONBONDED TABLE SIZE: 705 POINTS
TCL: Setting parameter alchLambda2 to 0.049999999999999684
Info: NONBONDED TABLE R-SQUARED SPACING: 0.0625
Info: NONBONDED TABLE SIZE: 705 POINTS
TCL: Running for 1500000 steps
ETITLE: TS BOND ANGLE DIHED IMPRP ELECT VDW BOUNDARY MISC KINETIC TOTAL TEMP POTENTIAL TOTALAVG TEMPAVG PRESSURE GPRESSURE VOLUME PRESSAVG GPRESSAVG
ENERGY: 0 6.0913 15.9446 17.0936 0.0000 -10755.4793 1453.5487 0.0000 0.0000 1807.0685 -7455.7326 304.5916 -9262.8011 -7455.7326 304.5916 -352.4444 -263.9311 30708.6704 -352.4444 -263.9311
ENERGY: 300000 3.2584 7.1954 16.2567 0.0000 -10699.1943 1401.3058 0.0000 0.0000 1786.6910 -7484.4870 301.1569 -9271.1779 -7473.8424 304.3113 -588.4014 -461.0186 30682.0349 -436.1853 -336.6608
ENERGY: 600000 5.2684 10.4086 16.1030 0.0000 -10544.4463 1377.3999 0.0000 0.0000 1828.1869 -7307.0796 308.1512 -9135.2665 -7441.4257 306.1070 -477.8263 -464.7913 30635.3103 -365.6502 -276.9746
ENERGY: 900000 8.3376 10.3027 15.8622 0.0000 -10803.0192 1440.9318 0.0000 0.0000 1778.9985 -7548.5863 299.8602 -9327.5848 -7454.3702 305.5135 -56.7875 21.3086 30212.8189 -165.6269 -81.1296
ENERGY: 1200000 5.0691 17.8824 8.5207 0.0000 -10633.0487 1393.0512 0.0000 0.0000 1811.1749 -7397.3503 305.2838 -9208.5252 -7445.3123 304.6277 -246.8158 -185.2341 30486.3501 -142.6650 -60.7455
ENERGY: 1500000 8.6124 11.5604 14.3574 0.0000 -10689.3839 1446.1653 0.0000 0.0000 1766.5127 -7442.1757 297.7557 -9208.6885 -7451.4850 303.6547 8.4642 43.7682 30227.2319 -188.5231 -110.5210
TCL: Running FEP window  20: Lambda1 0.049999999999999684 Lambda2 0.0    [dLambda -0.049999999999999684]
TCL: Setting parameter firsttimestep to 0
TCL: Setting parameter alchLambda to 0.049999999999999684
Info: NONBONDED TABLE R-SQUARED SPACING: 0.0625
Info: NONBONDED TABLE SIZE: 705 POINTS
TCL: Setting parameter alchLambda2 to 0.0
Info: NONBONDED TABLE R-SQUARED SPACING: 0.0625
Info: NONBONDED TABLE SIZE: 705 POINTS
TCL: Running for 1500000 steps
ETITLE: TS BOND ANGLE DIHED IMPRP ELECT VDW BOUNDARY MISC KINETIC TOTAL TEMP POTENTIAL TOTALAVG TEMPAVG PRESSURE GPRESSURE VOLUME PRESSAVG GPRESSAVG
ENERGY: 0 8.6124 11.5604 14.3574 0.0000 -10689.3830 1445.5947 0.0000 0.0000 1765.6223 -7443.6358 297.6056 -9209.2582 -7443.6358 297.6056 -38.8885 38.7383 30227.2319 -38.8885 38.7383
ENERGY: 300000 7.5137 19.2082 10.8413 0.0000 -10773.0509 1451.5055 0.0000 0.0000 1824.9677 -7459.0145 307.6086 -9283.9822 -7454.5641 299.2345 2.5125 135.0188 30042.6454 -54.4694 23.3212
ENERGY: 600000 7.2087 15.6857 14.6847 0.0000 -10795.8460 1483.8461 0.0000 0.0000 1808.6626 -7465.7583 304.8603 -9274.4209 -7450.5199 301.9276 340.7328 446.2012 30073.5206 -54.1914 13.9117
ENERGY: 900000 5.1666 12.1579 13.6150 0.0000 -10751.9928 1510.3206 0.0000 0.0000 1743.4189 -7467.3138 293.8631 -9210.7328 -7449.1610 301.7369 348.9139 473.7431 30398.0627 -17.3946 61.6763
ENERGY: 1200000 8.2422 16.0210 17.3563 0.0000 -10889.0347 1477.4621 0.0000 0.0000 1813.5276 -7556.4254 305.6803 -9369.9530 -7456.6903 301.7698 -317.9906 -195.1893 30187.8650 -26.6149 58.3429
ENERGY: 1500000 6.1859 7.1688 16.0516 0.0000 -10838.8058 1461.4977 0.0000 0.0000 1798.8092 -7549.0925 303.1995 -9347.9017 -7462.3550 301.1084 -56.9209 45.4109 29895.0713 33.5553 118.9153
TCL: Exiting due to exit command.
