Info: SIMULATION PARAMETERS:
Info: TIMESTEP               2
Info: NUMBER OF STEPS        0
Info: STEPS PER CYCLE        10
Info: PERIODIC CELL BASIS 1  31.0407 0 0
Info: PERIODIC CELL BASIS 2  0 28.2006 0
Info: PERIODIC CELL BASIS 3  0 0 34.7076
Info: PERIODIC CELL CENTER   0 0 0
Info: WRAPPING WATERS AROUND PERIODIC BOUNDARIES ON OUTPUT.
Info: WRAPPING ALL CLUSTERS AROUND PERIODIC BOUNDARIES ON OUTPUT.
Info: FIRST LDB TIMESTEP     50
Info: LAST LDB TIMESTEP     -1
Info: HOM BACKGROUND SCALING 1
Info: PME BACKGROUND SCALING 1
Info: MIN ATOMS PER PATCH    40
Info: EMPTY PATCH LOAD       40 ATOMS
Info: VELOCITY FILE          mobley_6619554_equil.vel
Info: CENTER OF MASS MOVING INITIALLY? NO
Info: DIELECTRIC             1
Info: EXCLUDE                SCALED ONE-FOUR
Info: 1-4 ELECTROSTATICS SCALED BY 0.833333
Info: MODIFIED 1-4 VDW PARAMETERS WILL BE USED
Info: DCD FILENAME           mobley_6619554_prod.dcd
Info: DCD FREQUENCY          100000
Info: DCD FIRST STEP         100000
Info: DCD FILE WILL CONTAIN UNIT CELL DATA
Info: XST FILENAME           mobley_6619554_prod.xst
Info: XST FREQUENCY          100000
Info: NO VELOCITY DCD OUTPUT
Info: NO FORCE DCD OUTPUT
Info: OUTPUT FILENAME        mobley_6619554_prod
Info: BINARY OUTPUT FILES WILL BE USED
Info: RESTART FILENAME       mobley_6619554_prod.restart
Info: RESTART FREQUENCY      100000
Info: BINARY RESTART FILES WILL BE USED
Info: CUTOFF                 9
Info: PAIRLIST DISTANCE      11
Info: PAIRLIST SHRINK RATE   0.01
Info: PAIRLIST GROW RATE     0.01
Info: PAIRLIST TRIGGER       0.3
Info: PAIRLISTS PER CYCLE    2
Info: PAIRLISTS ENABLED
Info: MARGIN                 2
Info: HYDROGEN GROUP CUTOFF  2.5
Info: PATCH DIMENSION        15.5
Info: ENERGY OUTPUT STEPS    100000
Info: ENERGY EVALUATION STEPS    100000
Info: OUTPUT ENERGY PRECISION 4
Info: CROSSTERM ENERGY INCLUDED IN DIHEDRAL
Info: TIMING OUTPUT STEPS    1000000
Info: PRESSURE OUTPUT STEPS  100000
Info: ALCHEMICAL FEP ON
Info: FEP CURRENT LAMBDA VALUE     0
Info: FEP COMPARISON LAMBDA VALUE  0.05
Info: FEP INTRA-ALCHEMICAL NON-BONDED INTERACTIONS WILL BE RETAINED
Info: FEP INTRA-ALCHEMICAL BONDED INTERACTIONS WILL BE RETAINED
Info: FEP VDW SHIFTING COEFFICIENT 5
Info: FEP ELEC. ACTIVE FOR ANNIHILATED PARTICLES BETWEEN LAMBDA = 0 AND LAMBDA = 0.5
Info: FEP ELEC. ACTIVE FOR EXNIHILATED PARTICLES BETWEEN LAMBDA = 0.5 AND LAMBDA = 1
Info: FEP VDW ACTIVE FOR ANNIHILATED PARTICLES BETWEEN LAMBDA = 0 AND LAMBDA = 1
Info: FEP VDW ACTIVE FOR EXNIHILATED PARTICLES BETWEEN LAMBDA = 0 AND LAMBDA = 1
Info: FEP BOND ACTIVE FOR ANNIHILATED PARTICLES BETWEEN LAMBDA = 1 AND LAMBDA = 1
Info: FEP BOND ACTIVE FOR EXNIHILATED PARTICLES BETWEEN LAMBDA = 0 AND LAMBDA = 0
Info: LANGEVIN DYNAMICS ACTIVE
Info: LANGEVIN TEMPERATURE   300
Info: LANGEVIN USING BBK INTEGRATOR
Info: LANGEVIN DAMPING COEFFICIENT IS 1 INVERSE PS
Info: LANGEVIN DYNAMICS APPLIED TO HYDROGENS
Info: LANGEVIN PISTON PRESSURE CONTROL ACTIVE
Info:        TARGET PRESSURE IS 1.01325 BAR
Info:     OSCILLATION PERIOD IS 50 FS
Info:             DECAY TIME IS 25 FS
Info:     PISTON TEMPERATURE IS 300 K
Info:       PRESSURE CONTROL IS GROUP-BASED
Info:    INITIAL STRAIN RATE IS 0.000430497 0.000430497 0.000430497
Info:       CELL FLUCTUATION IS ISOTROPIC
Info: PARTICLE MESH EWALD (PME) ACTIVE
Info: PME TOLERANCE               1e-06
Info: PME EWALD COEFFICIENT       0.348832
Info: PME INTERPOLATION ORDER     4
Info: PME GRID DIMENSIONS         32 32 36
Info: PME MAXIMUM GRID SPACING    1
Info: PME CALCULATION WILL BE PERFORMED ON GPU
Info: FULL ELECTROSTATIC EVALUATION FREQUENCY      2
Info: USING VERLET I (r-RESPA) MTS SCHEME.
Info: C1 SPLITTING OF LONG RANGE ELECTROSTATICS
Info: PLACING ATOMS IN PATCHES BY HYDROGEN GROUPS
Info: RIGID BONDS TO HYDROGEN : ALL
Info:         ERROR TOLERANCE : 1e-08
Info:          MAX ITERATIONS : 100
Info: RIGID WATER USING SETTLE ALGORITHM
Info: RANDOM NUMBER SEED     1743986137
Info: USE HYDROGEN BONDS?    NO
Info: Using AMBER format force field!
Info: AMBER PARM FILE        mobley_6619554.prmtop
Info: COORDINATE PDB         mobley_6619554.pdb
Info: Exclusions will be read from PARM file!
Info: SCNB (VDW SCALING)     2
Info: USING ARITHMETIC MEAN TO COMBINE L-J SIGMA PARAMETERS
Info: BINARY COORDINATES     mobley_6619554_equil.coor
Info: SUMMARY OF PARAMETERS:
Info: 9 BONDS
Info: 13 ANGLES
Info:   13 HARMONIC
Info:   0 COSINE-BASED
Info: 20 DIHEDRAL
Info: 0 IMPROPER
Info: 0 CROSSTERM
Info: 0 VDW
Info: 36 VDW_PAIRS
Info: 0 NBTHOLE_PAIRS
Info: To read alchdata from file: mobley_6619554.pdb
Info: To read alchflag data from column: 5
Info: STRUCTURE SUMMARY:
Info: 2951 ATOMS
Info: 2950 BONDS
Info: 40 ANGLES
Info: 61 DIHEDRALS
Info: 0 IMPROPERS
Info: 0 CROSSTERMS
Info: 3037 EXCLUSIONS
Info: 2942 RIGID BONDS
Info: ALCH: 0 ATOMS TO DISAPPEAR IN FINAL STATE
Info: ALCH: 23 ATOMS TO APPEAR IN FINAL STATE
Info: 5911 DEGREES OF FREEDOM
Info: 985 HYDROGEN GROUPS
Info: 4 ATOMS IN LARGEST HYDROGEN GROUP
Info: 985 MIGRATION GROUPS
Info: 4 ATOMS IN LARGEST MIGRATION GROUP
Info: TOTAL MASS = 17713.8 amu
Info: TOTAL CHARGE = 0.00010005 e
Info: MASS DENSITY = 0.96818 g/cm^3
Info: ATOM DENSITY = 0.0971303 atoms/A^3
Info: ADDED 0 IMPLICIT EXCLUSIONS
Info: NONBONDED TABLE R-SQUARED SPACING: 0.0625
Info: NONBONDED TABLE SIZE: 705 POINTS
Info: REMOVING COM VELOCITY -0.312656 -0.361694 0.0774347
Info: Use 3D box decompostion in PME FFT.
Info: Updated CUDA force table with 4096 elements.
Info: Updated CUDA LJ table with 8 x 8 elements.
Info: Found 24 unique exclusion lists needing 72 bytes
TCL: Running for 1500000 steps
ETITLE: TS BOND ANGLE DIHED IMPRP ELECT VDW BOUNDARY MISC KINETIC TOTAL TEMP POTENTIAL TOTALAVG TEMPAVG PRESSURE GPRESSURE VOLUME PRESSAVG GPRESSAVG
ENERGY: 0 1.9958 11.2044 5.8238 0.0000 -10623.1541 1451.6357 0.0000 0.0000 1774.0761 -7378.4183 302.0659 -9152.4944 -7378.4183 302.0659 222.2346 313.7170 30381.8796 222.2346 313.7170
ENERGY: 300000 3.5136 9.6006 5.6219 0.0000 -10566.0008 1400.8872 0.0000 0.0000 1738.0909 -7408.2867 295.9388 -9146.3776 -7428.9399 297.0957 -562.8755 -431.5752 30808.9148 -136.4188 -41.1654
ENERGY: 600000 2.5093 9.2126 6.6557 0.0000 -10735.8867 1431.3124 0.0000 0.0000 1756.9745 -7529.2221 299.1541 -9286.1966 -7461.1086 297.5098 -77.9900 -25.6411 30183.4413 -244.2295 -165.9289
ENERGY: 900000 1.4924 7.2892 6.2317 0.0000 -10632.5164 1399.4568 0.0000 0.0000 1680.4802 -7537.5663 286.1296 -9218.0464 -7464.4215 296.4875 -459.5619 -357.0110 30244.9087 -191.8968 -113.9284
ENERGY: 1200000 1.1889 17.0126 7.3483 0.0000 -10722.9802 1394.0750 0.0000 0.0000 1752.0528 -7551.3025 298.3161 -9303.3554 -7478.8987 297.0082 -437.2200 -309.3957 29743.3294 -178.4191 -105.6153
ENERGY: 1500000 4.2110 9.3554 6.3481 0.0000 -10743.0709 1463.2579 0.0000 0.0000 1695.2504 -7564.6481 288.6445 -9259.8985 -7483.2078 296.5018 68.8518 106.8309 30162.6753 -205.5176 -135.5642
TCL: Running FEP window   2: Lambda1 0.05   Lambda2 0.1    [dLambda 0.05  ]
TCL: Setting parameter firsttimestep to 0
TCL: Setting parameter alchLambda to 0.05
Info: NONBONDED TABLE R-SQUARED SPACING: 0.0625
Info: NONBONDED TABLE SIZE: 705 POINTS
TCL: Setting parameter alchLambda2 to 0.1
Info: NONBONDED TABLE R-SQUARED SPACING: 0.0625
Info: NONBONDED TABLE SIZE: 705 POINTS
TCL: Running for 1500000 steps
ETITLE: TS BOND ANGLE DIHED IMPRP ELECT VDW BOUNDARY MISC KINETIC TOTAL TEMP POTENTIAL TOTALAVG TEMPAVG PRESSURE GPRESSURE VOLUME PRESSAVG GPRESSAVG
ENERGY: 0 4.2110 9.3554 6.3481 0.0000 -10743.0715 1465.8271 0.0000 0.0000 1694.3525 -7562.9773 288.4916 -9257.3298 -7562.9773 288.4916 48.0460 112.3393 30162.6753 48.0460 112.3393
ENERGY: 300000 2.1633 8.4887 5.9834 0.0000 -10624.1459 1446.3220 0.0000 0.0000 1791.5153 -7369.6732 305.0352 -9161.1886 -7462.2550 299.2106 78.6700 106.2417 30450.8729 34.1312 94.5256
ENERGY: 600000 4.6781 8.2586 5.1889 0.0000 -10614.8956 1409.4103 0.0000 0.0000 1742.9005 -7444.4592 296.7577 -9187.3597 -7455.6343 299.5782 -295.8739 -195.7227 30265.4272 11.3502 77.6872
ENERGY: 900000 1.9029 9.8279 8.1049 0.0000 -10761.7839 1428.7324 0.0000 0.0000 1780.8731 -7532.3427 303.2232 -9313.2157 -7477.7873 299.1284 -9.2321 78.7537 29603.7376 -82.1079 -11.7509
ENERGY: 1200000 1.8518 10.6380 5.5752 0.0000 -10748.2538 1503.5581 0.0000 0.0000 1771.2592 -7455.3716 301.5863 -9226.6307 -7472.6242 299.2196 682.2577 743.8337 29626.5611 11.6309 77.4879
ENERGY: 1500000 2.7684 11.2181 6.1659 0.0000 -10757.4328 1564.8174 0.0000 0.0000 1777.6123 -7394.8507 302.6680 -9172.4629 -7463.1404 299.4488 1224.4879 1293.6338 29864.1342 61.2715 123.8384
TCL: Running FEP window   3: Lambda1 0.1    Lambda2 0.15000000000000002 [dLambda 0.05000000000000002]
TCL: Setting parameter firsttimestep to 0
TCL: Setting parameter alchLambda to 0.1
Info: NONBONDED TABLE R-SQUARED SPACING: 0.0625
Info: NONBONDED TABLE SIZE: 705 POINTS
TCL: Setting parameter alchLambda2 to 0.15000000000000002
Info: NONBONDED TABLE R-SQUARED SPACING: 0.0625
Info: NONBONDED TABLE SIZE: 705 POINTS
TCL: Running for 1500000 steps
ETITLE: TS BOND ANGLE DIHED IMPRP ELECT VDW BOUNDARY MISC KINETIC TOTAL TEMP POTENTIAL TOTALAVG TEMPAVG PRESSURE GPRESSURE VOLUME PRESSAVG GPRESSAVG
ENERGY: 0 2.7684 11.2181 6.1659 0.0000 -10757.4312 1569.1309 0.0000 0.0000 1776.7314 -7391.4165 302.5180 -9168.1479 -7391.4165 302.5180 1222.0626 1307.4700 29864.1342 1222.0626 1307.4700
ENERGY: 300000 1.3367 11.1758 4.9785 0.0000 -10579.8243 1360.2929 0.0000 0.0000 1732.3701 -7469.6702 294.9647 -9202.0404 -7434.1423 299.5626 -758.3207 -689.5625 30643.3282 -13.4076 66.0825
ENERGY: 600000 1.2578 12.0154 6.8824 0.0000 -10615.1533 1391.3401 0.0000 0.0000 1767.0696 -7436.5880 300.8729 -9203.6576 -7432.1488 300.4240 -443.7681 -379.1712 30697.7952 4.5260 81.8549
ENERGY: 900000 2.3042 7.8683 4.1609 0.0000 -10570.2034 1404.3507 0.0000 0.0000 1830.9058 -7320.6134 311.7421 -9151.5192 -7424.5206 300.9326 -340.8505 -311.6517 31242.9706 -12.5575 63.1446
ENERGY: 1200000 2.5955 9.9349 5.7945 0.0000 -10824.2810 1522.4715 0.0000 0.0000 1764.7612 -7518.7234 300.4799 -9283.4846 -7433.0862 300.5831 338.2595 430.5697 30439.6101 30.4358 106.3797
ENERGY: 1500000 1.6700 11.6715 6.6169 0.0000 -10705.3751 1450.5739 0.0000 0.0000 1781.7279 -7453.1149 303.3687 -9234.8428 -7433.2987 300.3576 -7.9356 88.7851 30259.5406 -40.5449 27.7036
TCL: Running FEP window   4: Lambda1 0.15000000000000002 Lambda2 0.2    [dLambda 0.04999999999999999]
TCL: Setting parameter firsttimestep to 0
TCL: Setting parameter alchLambda to 0.15000000000000002
Info: NONBONDED TABLE R-SQUARED SPACING: 0.0625
Info: NONBONDED TABLE SIZE: 705 POINTS
TCL: Setting parameter alchLambda2 to 0.2
Info: NONBONDED TABLE R-SQUARED SPACING: 0.0625
Info: NONBONDED TABLE SIZE: 705 POINTS
TCL: Running for 1500000 steps
ETITLE: TS BOND ANGLE DIHED IMPRP ELECT VDW BOUNDARY MISC KINETIC TOTAL TEMP POTENTIAL TOTALAVG TEMPAVG PRESSURE GPRESSURE VOLUME PRESSAVG GPRESSAVG
ENERGY: 0 1.6700 11.6716 6.6169 0.0000 -10705.3739 1451.6764 0.0000 0.0000 1780.7967 -7452.9423 303.2102 -9233.7390 -7452.9423 303.2102 6.8349 100.0446 30259.5406 6.8349 100.0446
ENERGY: 300000 2.6187 8.8293 4.7850 0.0000 -10734.7284 1461.3511 0.0000 0.0000 1759.6292 -7497.5152 299.6061 -9257.1444 -7474.5211 299.6362 46.6448 114.3951 30357.2522 137.5466 221.7465
ENERGY: 600000 4.2181 8.4603 6.1074 0.0000 -10776.5329 1485.6451 0.0000 0.0000 1786.3451 -7485.7568 304.1549 -9272.1019 -7469.2158 300.5159 300.8918 387.1136 30204.5623 87.0142 182.9356
ENERGY: 900000 1.8266 8.4239 6.8286 0.0000 -10768.5849 1511.4222 0.0000 0.0000 1841.2511 -7398.8325 313.5035 -9240.0837 -7446.6458 302.6512 531.0816 621.1554 30091.5433 192.7116 283.0957
ENERGY: 1200000 1.9545 11.0864 5.5088 0.0000 -10809.7729 1506.5984 0.0000 0.0000 1796.1121 -7488.5127 305.8179 -9284.6247 -7452.0648 301.5202 554.5542 659.7827 29899.4705 198.9014 284.8962
ENERGY: 1500000 3.7758 9.7394 5.2636 0.0000 -10516.0849 1334.3156 0.0000 0.0000 1734.1980 -7428.7924 295.2760 -9162.9904 -7450.0657 301.5283 -681.5500 -623.4457 30442.7265 113.3631 193.7130
TCL: Running FEP window   5: Lambda1 0.2    Lambda2 0.25   [dLambda 0.04999999999999999]
TCL: Setting parameter firsttimestep to 0
TCL: Setting parameter alchLambda to 0.2
Info: NONBONDED TABLE R-SQUARED SPACING: 0.0625
Info: NONBONDED TABLE SIZE: 705 POINTS
TCL: Setting parameter alchLambda2 to 0.25
Info: NONBONDED TABLE R-SQUARED SPACING: 0.0625
Info: NONBONDED TABLE SIZE: 705 POINTS
TCL: Running for 1500000 steps
ETITLE: TS BOND ANGLE DIHED IMPRP ELECT VDW BOUNDARY MISC KINETIC TOTAL TEMP POTENTIAL TOTALAVG TEMPAVG PRESSURE GPRESSURE VOLUME PRESSAVG GPRESSAVG
ENERGY: 0 3.7758 9.7394 5.2636 0.0000 -10516.0841 1334.0626 0.0000 0.0000 1733.3088 -7429.9338 295.1246 -9163.2426 -7429.9338 295.1246 -695.0326 -619.6823 30442.7265 -695.0326 -619.6823
ENERGY: 300000 3.2355 4.3881 5.2765 0.0000 -10510.1905 1319.4124 0.0000 0.0000 1739.5279 -7438.3500 296.1835 -9177.8779 -7451.2661 296.8457 -779.4029 -724.7698 30137.7064 -133.6064 -82.1884
ENERGY: 600000 2.1763 9.9300 6.4180 0.0000 -10534.2345 1292.5185 0.0000 0.0000 1724.9003 -7498.2914 293.6929 -9223.1917 -7454.8979 299.0939 -1050.1630 -1004.0404 30155.5451 -60.3968 -13.0215
ENERGY: 900000 2.5624 8.6234 5.3927 0.0000 -10768.0455 1419.1448 0.0000 0.0000 1736.6487 -7595.6734 295.6932 -9332.3221 -7503.6202 297.2480 -493.0316 -431.1851 30054.2609 -26.1609 24.6842
ENERGY: 1200000 3.3701 9.0255 7.2461 0.0000 -10714.5407 1523.6332 0.0000 0.0000 1802.6604 -7368.6055 306.9328 -9171.2658 -7494.5665 298.6613 997.5534 994.3676 29996.0688 -8.5258 35.8736
ENERGY: 1500000 5.2746 6.6702 6.0468 0.0000 -10700.8033 1460.3677 0.0000 0.0000 1824.9889 -7397.4550 310.7346 -9222.4439 -7488.3681 299.1822 -296.2584 -231.4662 30499.4316 -31.1416 17.9794
TCL: Running FEP window   6: Lambda1 0.25   Lambda2 0.3    [dLambda 0.04999999999999999]
TCL: Setting parameter firsttimestep to 0
TCL: Setting parameter alchLambda to 0.25
Info: NONBONDED TABLE R-SQUARED SPACING: 0.0625
Info: NONBONDED TABLE SIZE: 705 POINTS
TCL: Setting parameter alchLambda2 to 0.3
Info: NONBONDED TABLE R-SQUARED SPACING: 0.0625
Info: NONBONDED TABLE SIZE: 705 POINTS
TCL: Running for 1500000 steps
ETITLE: TS BOND ANGLE DIHED IMPRP ELECT VDW BOUNDARY MISC KINETIC TOTAL TEMP POTENTIAL TOTALAVG TEMPAVG PRESSURE GPRESSURE VOLUME PRESSAVG GPRESSAVG
ENERGY: 0 5.2746 6.6702 6.0468 0.0000 -10700.8034 1461.1495 0.0000 0.0000 1824.1335 -7397.5287 310.5890 -9221.6622 -7397.5287 310.5890 -302.5556 -226.8160 30499.4316 -302.5556 -226.8160
ENERGY: 300000 3.1011 5.8535 5.1101 0.0000 -10519.6824 1288.0903 0.0000 0.0000 1746.8500 -7470.6775 297.4302 -9217.5274 -7425.5363 301.2865 -1410.4088 -1294.6698 30516.3958 -343.6228 -264.4826
ENERGY: 600000 2.3489 9.3622 6.5225 0.0000 -10777.7263 1459.5632 0.0000 0.0000 1763.1383 -7536.7913 300.2035 -9299.9296 -7459.5768 301.1257 204.8970 167.9522 30096.3071 -73.2648 -30.2478
ENERGY: 900000 1.1397 10.3196 3.9971 0.0000 -10712.6207 1411.7730 0.0000 0.0000 1767.0914 -7518.3000 300.8766 -9285.3914 -7478.8229 299.5558 -451.3364 -428.6728 30250.2333 -199.3828 -140.8070
ENERGY: 1200000 3.6733 11.3393 5.1448 0.0000 -10804.3816 1466.2287 0.0000 0.0000 1749.3116 -7568.6839 297.8493 -9317.9955 -7486.7678 299.0210 -44.6150 23.9980 30029.0763 -178.1259 -117.7723
ENERGY: 1500000 2.9882 12.1337 5.2474 0.0000 -10773.4938 1462.6222 0.0000 0.0000 1696.6542 -7593.8481 288.8835 -9290.5023 -7492.1545 298.2586 131.4440 201.5667 29623.8916 -84.6933 -21.9261
TCL: Running FEP window   7: Lambda1 0.3    Lambda2 0.35   [dLambda 0.04999999999999999]
TCL: Setting parameter firsttimestep to 0
TCL: Setting parameter alchLambda to 0.3
Info: NONBONDED TABLE R-SQUARED SPACING: 0.0625
Info: NONBONDED TABLE SIZE: 705 POINTS
TCL: Setting parameter alchLambda2 to 0.35
Info: NONBONDED TABLE R-SQUARED SPACING: 0.0625
Info: NONBONDED TABLE SIZE: 705 POINTS
TCL: Running for 1500000 steps
ETITLE: TS BOND ANGLE DIHED IMPRP ELECT VDW BOUNDARY MISC KINETIC TOTAL TEMP POTENTIAL TOTALAVG TEMPAVG PRESSURE GPRESSURE VOLUME PRESSAVG GPRESSAVG
ENERGY: 0 2.9882 12.1337 5.2474 0.0000 -10773.4943 1463.2892 0.0000 0.0000 1695.8059 -7594.0299 288.7391 -9289.8358 -7594.0299 288.7391 134.3442 210.3016 29623.8916 134.3442 210.3016
ENERGY: 300000 0.6782 10.7024 4.3284 0.0000 -10827.1158 1511.1273 0.0000 0.0000 1772.4510 -7527.8285 301.7892 -9300.2794 -7527.0934 297.6465 319.2516 401.0960 30254.6185 86.5504 167.7908
ENERGY: 600000 1.0053 11.4553 7.3271 0.0000 -10759.5324 1458.8329 0.0000 0.0000 1721.9850 -7558.9268 293.1965 -9280.9118 -7518.1796 297.6702 -114.4258 -9.5659 30087.2712 -131.5518 -67.3923
ENERGY: 900000 1.4155 10.0170 7.5299 0.0000 -10748.3311 1490.5938 0.0000 0.0000 1766.9859 -7471.7888 300.8587 -9238.7747 -7517.8580 297.9759 544.8593 601.5477 29857.4814 7.6197 73.5887
ENERGY: 1200000 2.0173 13.5840 6.6793 0.0000 -10630.7846 1409.2068 0.0000 0.0000 1765.8293 -7433.4677 300.6617 -9199.2971 -7506.4350 298.5806 -166.4156 -62.0027 30285.9990 -55.1466 22.5796
ENERGY: 1500000 4.2571 15.9539 5.0487 0.0000 -10640.2162 1390.5933 0.0000 0.0000 1733.0318 -7491.3314 295.0774 -9224.3631 -7495.4141 298.5757 -372.4891 -294.5606 30087.8020 -107.5399 -29.7804
TCL: Running FEP window   8: Lambda1 0.35   Lambda2 0.39999999999999997 [dLambda 0.04999999999999999]
TCL: Setting parameter firsttimestep to 0
TCL: Setting parameter alchLambda to 0.35
Info: NONBONDED TABLE R-SQUARED SPACING: 0.0625
Info: NONBONDED TABLE SIZE: 705 POINTS
TCL: Setting parameter alchLambda2 to 0.39999999999999997
Info: NONBONDED TABLE R-SQUARED SPACING: 0.0625
Info: NONBONDED TABLE SIZE: 705 POINTS
TCL: Running for 1500000 steps
ETITLE: TS BOND ANGLE DIHED IMPRP ELECT VDW BOUNDARY MISC KINETIC TOTAL TEMP POTENTIAL TOTALAVG TEMPAVG PRESSURE GPRESSURE VOLUME PRESSAVG GPRESSAVG
ENERGY: 0 4.2571 15.9539 5.0487 0.0000 -10640.2159 1390.1690 0.0000 0.0000 1732.1410 -7492.6461 294.9257 -9224.7871 -7492.6461 294.9257 -370.8554 -292.4434 30087.8020 -370.8554 -292.4434
ENERGY: 300000 1.6065 10.3559 7.3507 0.0000 -10702.5073 1449.2066 0.0000 0.0000 1762.7767 -7471.2109 300.1420 -9233.9876 -7457.9092 298.1939 52.1047 175.0453 30449.0284 -67.1430 -8.6911
ENERGY: 600000 0.9125 9.8697 4.2595 0.0000 -10871.2724 1524.7103 0.0000 0.0000 1732.5411 -7598.9794 294.9938 -9331.5205 -7489.5647 297.3826 486.9284 571.8143 30065.6949 -197.2437 -137.3784
ENERGY: 900000 1.7620 10.5356 5.9920 0.0000 -10648.2541 1431.0359 0.0000 0.0000 1782.5052 -7416.4233 303.5011 -9198.9285 -7488.1991 297.2089 -36.1565 59.9439 30270.5959 -308.3434 -241.7662
ENERGY: 1200000 4.9922 10.1898 6.6383 0.0000 -10684.7962 1419.7126 0.0000 0.0000 1764.9315 -7478.3319 300.5089 -9243.2634 -7491.0542 298.0570 -337.6977 -209.5950 30145.6184 -336.6562 -263.2199
ENERGY: 1500000 2.0070 9.3810 9.5184 0.0000 -10731.0254 1518.6757 0.0000 0.0000 1820.7384 -7370.7048 310.0109 -9191.4433 -7476.2232 299.1118 418.8025 487.5481 30549.2237 -244.8912 -166.4830
TCL: Running FEP window   9: Lambda1 0.39999999999999997 Lambda2 0.44999999999999996 [dLambda 0.04999999999999999]
TCL: Setting parameter firsttimestep to 0
TCL: Setting parameter alchLambda to 0.39999999999999997
Info: NONBONDED TABLE R-SQUARED SPACING: 0.0625
Info: NONBONDED TABLE SIZE: 705 POINTS
TCL: Setting parameter alchLambda2 to 0.44999999999999996
Info: NONBONDED TABLE R-SQUARED SPACING: 0.0625
Info: NONBONDED TABLE SIZE: 705 POINTS
TCL: Running for 1500000 steps
ETITLE: TS BOND ANGLE DIHED IMPRP ELECT VDW BOUNDARY MISC KINETIC TOTAL TEMP POTENTIAL TOTALAVG TEMPAVG PRESSURE GPRESSURE VOLUME PRESSAVG GPRESSAVG
ENERGY: 0 2.0070 9.3810 9.5184 0.0000 -10731.0248 1519.0876 0.0000 0.0000 1819.8707 -7371.1601 309.8632 -9191.0308 -7371.1601 309.8632 421.2118 497.5511 30549.2237 421.2118 497.5511
ENERGY: 300000 2.8946 11.1107 5.4672 0.0000 -10782.9737 1512.5934 0.0000 0.0000 1792.5019 -7458.4060 305.2032 -9250.9079 -7425.7161 304.2485 678.6077 777.1229 29816.3699 257.4773 335.7829
ENERGY: 600000 3.9768 8.0424 5.8379 0.0000 -10625.1092 1373.2352 0.0000 0.0000 1786.4195 -7447.5974 304.1676 -9234.0169 -7441.0422 302.8795 -611.5073 -617.8299 30360.3079 47.7293 109.5773
ENERGY: 900000 2.8735 10.6766 6.8113 0.0000 -10764.1578 1437.6528 0.0000 0.0000 1748.5745 -7557.5691 297.7238 -9306.1436 -7452.7951 300.9058 -493.6998 -407.4028 30504.7497 -58.9355 -3.3720
ENERGY: 1200000 3.5241 13.7277 6.5436 0.0000 -10628.4454 1374.8726 0.0000 0.0000 1767.0598 -7462.7175 300.8712 -9229.7774 -7451.3072 299.5904 -615.2554 -574.7514 30490.9520 -107.9049 -55.8420
ENERGY: 1500000 3.6587 7.3884 5.7187 0.0000 -10655.0077 1351.2052 0.0000 0.0000 1743.1396 -7543.8970 296.7984 -9287.0366 -7458.3943 299.9950 -888.4269 -824.4803 30541.2856 -132.6284 -72.0122
TCL: Running FEP window  10: Lambda1 0.44999999999999996 Lambda2 0.49999999999999994 [dLambda 0.04999999999999999]
TCL: Setting parameter firsttimestep to 0
TCL: Setting parameter alchLambda to 0.44999999999999996
Info: NONBONDED TABLE R-SQUARED SPACING: 0.0625
Info: NONBONDED TABLE SIZE: 705 POINTS
TCL: Setting parameter alchLambda2 to 0.49999999999999994
Info: NONBONDED TABLE R-SQUARED SPACING: 0.0625
Info: NONBONDED TABLE SIZE: 705 POINTS
TCL: Running for 1500000 steps
ETITLE: TS BOND ANGLE DIHED IMPRP ELECT VDW BOUNDARY MISC KINETIC TOTAL TEMP POTENTIAL TOTALAVG TEMPAVG PRESSURE GPRESSURE VOLUME PRESSAVG GPRESSAVG
ENERGY: 0 3.6587 7.3884 5.7188 0.0000 -10655.0078 1351.2114 0.0000 0.0000 1742.2360 -7544.7945 296.6446 -9287.0305 -7544.7945 296.6446 -901.8190 -815.0370 30541.2856 -901.8190 -815.0370
ENERGY: 300000 0.8968 8.9392 7.2642 0.0000 -10527.4698 1367.5114 0.0000 0.0000 1760.5403 -7382.3180 299.7612 -9142.8583 -7500.1148 295.9352 -267.0597 -140.1125 29987.6105 -635.2934 -533.2570
ENERGY: 600000 2.1673 12.1210 6.8323 0.0000 -10557.3734 1367.2180 0.0000 0.0000 1765.2531 -7403.7818 300.5636 -9169.0349 -7456.3231 298.8645 -680.3320 -640.0749 30686.5768 -268.3534 -184.8501
ENERGY: 900000 1.7672 8.1832 5.0340 0.0000 -10629.7501 1431.0084 0.0000 0.0000 1739.9817 -7443.7755 296.2607 -9183.7572 -7453.1887 299.5386 -35.6631 47.7342 30334.4817 -176.4598 -98.2173
ENERGY: 1200000 1.5639 11.5700 6.3276 0.0000 -10734.2890 1448.0848 0.0000 0.0000 1729.1235 -7537.6192 294.4120 -9266.7427 -7449.6426 299.4335 -23.3606 62.7579 30173.3109 -152.1209 -79.5009
ENERGY: 1500000 2.3358 10.4371 5.4884 0.0000 -10711.5770 1403.9565 0.0000 0.0000 1779.2592 -7510.1001 302.9484 -9289.3593 -7460.0991 299.6778 -454.5614 -427.3367 30157.6743 -149.5229 -80.6813
TCL: Running FEP window  11: Lambda1 0.49999999999999994 Lambda2 0.5499999999999999 [dLambda 0.04999999999999999]
TCL: Setting parameter firsttimestep to 0
TCL: Setting parameter alchLambda to 0.49999999999999994
Info: NONBONDED TABLE R-SQUARED SPACING: 0.0625
Info: NONBONDED TABLE SIZE: 705 POINTS
TCL: Setting parameter alchLambda2 to 0.5499999999999999
Info: NONBONDED TABLE R-SQUARED SPACING: 0.0625
Info: NONBONDED TABLE SIZE: 705 POINTS
TCL: Running for 1500000 steps
ETITLE: TS BOND ANGLE DIHED IMPRP ELECT VDW BOUNDARY MISC KINETIC TOTAL TEMP POTENTIAL TOTALAVG TEMPAVG PRESSURE GPRESSURE VOLUME PRESSAVG GPRESSAVG
ENERGY: 0 2.3358 10.4371 5.4884 0.0000 -10711.5779 1403.8622 0.0000 0.0000 1778.3907 -7511.0638 302.8005 -9289.4545 -7511.0638 302.8005 -516.1714 -420.4377 30157.6743 -516.1714 -420.4377
ENERGY: 300000 3.7645 9.7690 6.3351 0.0000 -10661.1330 1392.3359 0.0000 0.0000 1746.5337 -7502.3948 297.3763 -9248.9285 -7488.4085 297.1601 -578.6234 -619.5675 30652.3419 -407.5279 -355.8449
ENERGY: 600000 2.2431 6.5753 5.5817 0.0000 -10724.4981 1424.1174 0.0000 0.0000 1769.4527 -7516.5279 301.2787 -9285.9806 -7474.2498 298.4965 -335.3675 -261.6498 30382.6936 -76.6407 -1.8589
ENERGY: 900000 3.3079 12.0399 5.4214 0.0000 -10845.5050 1557.3634 0.0000 0.0000 1775.0541 -7492.3182 302.2324 -9267.3724 -7460.2890 300.6501 1063.2145 1065.3074 29933.0053 39.6572 96.6552
ENERGY: 1200000 1.1848 7.1634 3.3489 0.0000 -10640.8981 1466.3753 0.0000 0.0000 1730.9333 -7431.8923 294.7201 -9162.8256 -7455.8329 300.1837 193.3865 197.2336 30973.6374 -17.3003 38.9544
ENERGY: 1500000 0.4766 12.6598 4.2391 0.0000 -10467.8440 1352.7658 0.0000 0.0000 1753.9115 -7343.7913 298.6325 -9097.7028 -7459.4838 299.6655 -457.2987 -401.7698 31013.8308 -97.6148 -41.2306
TCL: Running FEP window  12: Lambda1 0.5499999999999999 Lambda2 0.6    [dLambda 0.050000000000000044]
TCL: Setting parameter firsttimestep to 0
TCL: Setting parameter alchLambda to 0.5499999999999999
Info: NONBONDED TABLE R-SQUARED SPACING: 0.0625
Info: NONBONDED TABLE SIZE: 705 POINTS
TCL: Setting parameter alchLambda2 to 0.6
Info: NONBONDED TABLE R-SQUARED SPACING: 0.0625
Info: NONBONDED TABLE SIZE: 705 POINTS
TCL: Running for 1500000 steps
ETITLE: TS BOND ANGLE DIHED IMPRP ELECT VDW BOUNDARY MISC KINETIC TOTAL TEMP POTENTIAL TOTALAVG TEMPAVG PRESSURE GPRESSURE VOLUME PRESSAVG GPRESSAVG
ENERGY: 0 0.4766 12.6598 4.2391 0.0000 -10468.0117 1352.4029 0.0000 0.0000 1753.0536 -7345.1797 298.4865 -9098.2334 -7345.1797 298.4865 -479.5349 -397.2589 31013.8308 -479.5349 -397.2589
ENERGY: 300000 1.9506 8.9471 5.8569 0.0000 -10589.6003 1399.3089 0.0000 0.0000 1755.2661 -7418.2706 298.8632 -9173.5367 -7432.7868 299.4934 -176.0594 -164.6878 30570.5232 -167.8503 -115.6813
ENERGY: 600000 5.4324 11.2231 5.2895 0.0000 -10638.3833 1413.9993 0.0000 0.0000 1767.8708 -7434.5683 301.0093 -9202.4391 -7448.9356 299.6743 -176.6365 -105.3971 30168.5802 -198.2051 -130.9703
ENERGY: 900000 1.9447 11.0819 6.4132 0.0000 -10539.7400 1375.1364 0.0000 0.0000 1737.9024 -7407.2615 295.9067 -9145.1639 -7435.8237 300.3881 -722.7323 -626.6562 31427.3155 -143.2903 -72.0551
ENERGY: 1200000 2.0798 9.2262 8.0063 0.0000 -10786.3261 1458.9627 0.0000 0.0000 1778.7177 -7529.3334 302.8562 -9308.0511 -7448.3646 300.0291 90.8450 109.5524 30103.6480 -86.1374 -24.4144
ENERGY: 1500000 0.4710 7.1896 5.4339 0.0000 -10747.1901 1477.9320 0.0000 0.0000 1729.2726 -7526.8910 294.4373 -9256.1636 -7467.1449 299.1557 398.1880 515.8214 29787.3997 -88.2203 -23.1246
TCL: Running FEP window  13: Lambda1 0.6    Lambda2 0.65   [dLambda 0.050000000000000044]
TCL: Setting parameter firsttimestep to 0
TCL: Setting parameter alchLambda to 0.6
Info: NONBONDED TABLE R-SQUARED SPACING: 0.0625
Info: NONBONDED TABLE SIZE: 705 POINTS
TCL: Setting parameter alchLambda2 to 0.65
Info: NONBONDED TABLE R-SQUARED SPACING: 0.0625
Info: NONBONDED TABLE SIZE: 705 POINTS
TCL: Running for 1500000 steps
ETITLE: TS BOND ANGLE DIHED IMPRP ELECT VDW BOUNDARY MISC KINETIC TOTAL TEMP POTENTIAL TOTALAVG TEMPAVG PRESSURE GPRESSURE VOLUME PRESSAVG GPRESSAVG
ENERGY: 0 0.4710 7.1896 5.4339 0.0000 -10748.2331 1477.9486 0.0000 0.0000 1728.4002 -7528.7899 294.2888 -9257.1901 -7528.7899 294.2888 443.6867 523.1151 29787.3997 443.6867 523.1151
ENERGY: 300000 2.4951 11.1485 6.9682 0.0000 -10664.7825 1442.0361 0.0000 0.0000 1671.9250 -7530.2096 284.6730 -9202.1346 -7486.4378 296.2503 238.2768 231.4519 30081.8048 471.8891 511.6999
ENERGY: 600000 1.8770 7.9651 4.9871 0.0000 -10689.9030 1412.5626 0.0000 0.0000 1801.3225 -7461.1888 306.7050 -9262.5113 -7462.0430 298.8271 74.2213 151.7991 29732.4508 256.7450 316.7776
ENERGY: 900000 2.7699 10.7801 4.3821 0.0000 -10770.3967 1454.9096 0.0000 0.0000 1723.8392 -7573.7157 293.5122 -9297.5550 -7471.7767 298.0797 -220.9101 -191.4830 30543.2115 251.6928 316.8650
ENERGY: 1200000 2.2176 9.1982 5.2377 0.0000 -10695.1971 1437.3303 0.0000 0.0000 1740.5606 -7500.6527 296.3593 -9241.2134 -7476.1158 299.2402 62.2257 141.7886 30369.1839 297.8001 370.0392
ENERGY: 1500000 3.4386 7.8360 5.6191 0.0000 -10717.8395 1453.9806 0.0000 0.0000 1713.8604 -7533.1048 291.8132 -9246.9652 -7478.3592 299.4521 177.0382 282.2682 30093.2974 256.9003 325.5729
TCL: Running FEP window  14: Lambda1 0.65   Lambda2 0.7000000000000001 [dLambda 0.050000000000000044]
TCL: Setting parameter firsttimestep to 0
TCL: Setting parameter alchLambda to 0.65
Info: NONBONDED TABLE R-SQUARED SPACING: 0.0625
Info: NONBONDED TABLE SIZE: 705 POINTS
TCL: Setting parameter alchLambda2 to 0.7000000000000001
Info: NONBONDED TABLE R-SQUARED SPACING: 0.0625
Info: NONBONDED TABLE SIZE: 705 POINTS
TCL: Running for 1500000 steps
ETITLE: TS BOND ANGLE DIHED IMPRP ELECT VDW BOUNDARY MISC KINETIC TOTAL TEMP POTENTIAL TOTALAVG TEMPAVG PRESSURE GPRESSURE VOLUME PRESSAVG GPRESSAVG
ENERGY: 0 3.4385 7.8360 5.6191 0.0000 -10718.1970 1453.4805 0.0000 0.0000 1712.9957 -7534.8272 291.6659 -9247.8229 -7534.8272 291.6659 204.9001 288.8001 30093.2974 204.9001 288.8001
ENERGY: 300000 2.7391 13.8177 7.0059 0.0000 -10771.4614 1463.8142 0.0000 0.0000 1774.0941 -7509.9903 302.0689 -9284.0844 -7467.8261 298.6366 166.9362 224.0068 29966.8243 21.0133 78.1304
ENERGY: 600000 1.9216 9.4627 6.8579 0.0000 -10703.9151 1500.3190 0.0000 0.0000 1777.6214 -7407.7326 302.6695 -9185.3539 -7448.1883 300.1625 771.3901 819.3802 30114.7599 237.7780 305.7332
ENERGY: 900000 2.2989 8.8752 6.1320 0.0000 -10532.8380 1337.1018 0.0000 0.0000 1731.8412 -7446.5889 294.8747 -9178.4301 -7456.7333 299.1185 -808.8724 -701.4063 30370.4299 110.1897 177.6281
ENERGY: 1200000 3.4652 7.3765 3.2957 0.0000 -10650.3663 1462.7891 0.0000 0.0000 1735.2115 -7438.2283 295.4485 -9173.4399 -7450.7021 299.3746 324.3515 370.1866 30188.6166 33.9887 93.6326
ENERGY: 1500000 3.0004 12.4211 6.5635 0.0000 -10813.6321 1470.5913 0.0000 0.0000 1776.8145 -7544.2413 302.5321 -9321.0558 -7450.8087 300.4993 17.1208 164.7338 30067.5241 31.2934 94.0947
TCL: Running FEP window  15: Lambda1 0.7000000000000001 Lambda2 0.7500000000000001 [dLambda 0.050000000000000044]
TCL: Setting parameter firsttimestep to 0
TCL: Setting parameter alchLambda to 0.7000000000000001
Info: NONBONDED TABLE R-SQUARED SPACING: 0.0625
Info: NONBONDED TABLE SIZE: 705 POINTS
TCL: Setting parameter alchLambda2 to 0.7500000000000001
Info: NONBONDED TABLE R-SQUARED SPACING: 0.0625
Info: NONBONDED TABLE SIZE: 705 POINTS
TCL: Running for 1500000 steps
ETITLE: TS BOND ANGLE DIHED IMPRP ELECT VDW BOUNDARY MISC KINETIC TOTAL TEMP POTENTIAL TOTALAVG TEMPAVG PRESSURE GPRESSURE VOLUME PRESSAVG GPRESSAVG
ENERGY: 0 3.0004 12.4211 6.5635 0.0000 -10813.6586 1471.3181 0.0000 0.0000 1775.9535 -7544.4020 302.3855 -9320.3555 -7544.4020 302.3855 99.6555 183.4478 30067.5241 99.6555 183.4478
ENERGY: 300000 0.9511 7.4400 7.6113 0.0000 -10709.2376 1405.3700 0.0000 0.0000 1810.8668 -7476.9984 308.3301 -9287.8652 -7491.8247 301.8724 -499.1730 -462.0386 30862.5660 -318.3640 -279.2619
ENERGY: 600000 3.6437 7.3411 6.0191 0.0000 -10658.9423 1426.0819 0.0000 0.0000 1805.1120 -7410.7445 307.3502 -9215.8565 -7481.0990 300.6596 177.1725 205.7513 29964.6321 -64.6635 -16.8836
ENERGY: 900000 2.7333 13.4090 6.9620 0.0000 -10661.3614 1450.5726 0.0000 0.0000 1760.0755 -7427.6090 299.6820 -9187.6845 -7488.3226 299.2623 302.4865 361.9448 30453.0501 -49.7728 -1.1409
ENERGY: 1200000 2.9986 7.9184 6.3484 0.0000 -10743.0113 1428.4897 0.0000 0.0000 1774.3088 -7522.9475 302.1055 -9297.2563 -7491.5479 299.3434 -204.8196 -148.9684 30309.8806 -25.8821 23.6537
ENERGY: 1500000 3.7938 9.5633 6.0805 0.0000 -10619.1164 1384.8120 0.0000 0.0000 1711.6278 -7503.2390 291.4330 -9214.8668 -7494.5265 298.4551 -232.3361 -228.7990 30449.1479 -28.8566 22.5583
TCL: Running FEP window  16: Lambda1 0.7500000000000001 Lambda2 0.8000000000000002 [dLambda 0.050000000000000044]
TCL: Setting parameter firsttimestep to 0
TCL: Setting parameter alchLambda to 0.7500000000000001
Info: NONBONDED TABLE R-SQUARED SPACING: 0.0625
Info: NONBONDED TABLE SIZE: 705 POINTS
TCL: Setting parameter alchLambda2 to 0.8000000000000002
Info: NONBONDED TABLE R-SQUARED SPACING: 0.0625
Info: NONBONDED TABLE SIZE: 705 POINTS
TCL: Running for 1500000 steps
ETITLE: TS BOND ANGLE DIHED IMPRP ELECT VDW BOUNDARY MISC KINETIC TOTAL TEMP POTENTIAL TOTALAVG TEMPAVG PRESSURE GPRESSURE VOLUME PRESSAVG GPRESSAVG
ENERGY: 0 3.7938 9.5633 6.0805 0.0000 -10620.3071 1386.1560 0.0000 0.0000 1710.7534 -7503.9602 291.2841 -9214.7136 -7503.9602 291.2841 -278.7155 -204.2612 30449.1479 -278.7155 -204.2612
ENERGY: 300000 1.7996 9.4588 6.3415 0.0000 -10685.0308 1391.4118 0.0000 0.0000 1737.3196 -7538.6994 295.8075 -9276.0190 -7448.5396 297.3947 -560.5736 -503.3315 30513.4946 -136.2276 -80.3104
ENERGY: 600000 0.4924 10.4886 4.8748 0.0000 -10740.6824 1464.2558 0.0000 0.0000 1781.4873 -7479.0834 303.3278 -9260.5707 -7465.3526 299.4640 231.3917 253.4546 30180.1041 28.2167 90.7831
ENERGY: 900000 2.1486 10.5251 5.2413 0.0000 -10549.2910 1413.3269 0.0000 0.0000 1701.0646 -7416.9845 289.6345 -9118.0492 -7462.5718 298.7228 -48.2639 14.4086 30683.2955 0.2610 59.7751
ENERGY: 1200000 0.8410 7.7946 4.9981 0.0000 -10737.0527 1406.6341 0.0000 0.0000 1784.1794 -7532.6055 303.7861 -9316.7849 -7472.7915 299.2024 -432.7175 -310.6870 30328.9295 -49.5254 14.2487
ENERGY: 1500000 3.7066 14.9584 6.4138 0.0000 -10775.1602 1431.6371 0.0000 0.0000 1775.0724 -7543.3719 302.2355 -9318.4442 -7471.9131 299.7057 -238.6948 -150.7534 30310.8263 -64.0519 -6.1063
TCL: Running FEP window  17: Lambda1 0.8000000000000002 Lambda2 0.8500000000000002 [dLambda 0.050000000000000044]
TCL: Setting parameter firsttimestep to 0
TCL: Setting parameter alchLambda to 0.8000000000000002
Info: NONBONDED TABLE R-SQUARED SPACING: 0.0625
Info: NONBONDED TABLE SIZE: 705 POINTS
TCL: Setting parameter alchLambda2 to 0.8500000000000002
Info: NONBONDED TABLE R-SQUARED SPACING: 0.0625
Info: NONBONDED TABLE SIZE: 705 POINTS
TCL: Running for 1500000 steps
ETITLE: TS BOND ANGLE DIHED IMPRP ELECT VDW BOUNDARY MISC KINETIC TOTAL TEMP POTENTIAL TOTALAVG TEMPAVG PRESSURE GPRESSURE VOLUME PRESSAVG GPRESSAVG
ENERGY: 0 3.7066 14.9584 6.4138 0.0000 -10776.1191 1432.4600 0.0000 0.0000 1774.2077 -7544.3727 302.0883 -9318.5804 -7544.3727 302.0883 -216.9672 -129.9670 30310.8263 -216.9672 -129.9670
ENERGY: 300000 2.6792 12.6829 5.9291 0.0000 -10837.6261 1585.9690 0.0000 0.0000 1775.3170 -7455.0489 302.2772 -9230.3659 -7448.4828 302.8595 1365.7201 1380.1676 30019.4863 203.2116 251.2573
ENERGY: 600000 1.7913 12.3342 5.7391 0.0000 -10745.3614 1431.8286 0.0000 0.0000 1733.9349 -7559.7333 295.2312 -9293.6682 -7465.2763 300.1287 -144.4989 -63.0993 29955.1697 122.2348 181.0443
ENERGY: 900000 5.3176 10.5869 4.9402 0.0000 -10567.5094 1389.4059 0.0000 0.0000 1746.9032 -7410.3556 297.4392 -9157.2588 -7461.6200 299.2060 -91.6865 -62.5592 30758.1579 52.0053 102.7633
ENERGY: 1200000 2.6054 12.6314 6.1032 0.0000 -10595.5189 1367.5074 0.0000 0.0000 1744.6922 -7461.9794 297.0628 -9206.6716 -7463.4402 299.3713 -624.1676 -633.7358 30951.7568 -29.4145 9.4214
ENERGY: 1500000 1.1011 11.4339 8.7289 0.0000 -10561.7048 1354.0703 0.0000 0.0000 1764.0366 -7422.3339 300.3565 -9186.3706 -7454.5035 300.3440 -675.0698 -616.5993 30623.6907 -32.5507 12.8119
TCL: Running FEP window  18: Lambda1 0.8500000000000002 Lambda2 0.9000000000000002 [dLambda 0.050000000000000044]
TCL: Setting parameter firsttimestep to 0
TCL: Setting parameter alchLambda to 0.8500000000000002
Info: NONBONDED TABLE R-SQUARED SPACING: 0.0625
Info: NONBONDED TABLE SIZE: 705 POINTS
TCL: Setting parameter alchLambda2 to 0.9000000000000002
Info: NONBONDED TABLE R-SQUARED SPACING: 0.0625
Info: NONBONDED TABLE SIZE: 705 POINTS
TCL: Running for 1500000 steps
ETITLE: TS BOND ANGLE DIHED IMPRP ELECT VDW BOUNDARY MISC KINETIC TOTAL TEMP POTENTIAL TOTALAVG TEMPAVG PRESSURE GPRESSURE VOLUME PRESSAVG GPRESSAVG
ENERGY: 0 1.1011 11.4339 8.7289 0.0000 -10562.9784 1354.1374 0.0000 0.0000 1763.1654 -7424.4116 300.2082 -9187.5771 -7424.4116 300.2082 -696.9387 -605.3869 30623.6907 -696.9387 -605.3869
ENERGY: 300000 3.5936 7.2522 6.3812 0.0000 -10817.1984 1535.0692 0.0000 0.0000 1781.0221 -7483.8802 303.2486 -9264.9023 -7403.9105 303.3822 327.6988 452.1515 30542.8341 27.4300 126.8771
ENERGY: 600000 3.6884 6.7945 6.0672 0.0000 -10670.0443 1423.0687 0.0000 0.0000 1751.3792 -7479.0463 298.2014 -9230.4255 -7397.5135 302.9357 -44.2096 0.5681 30210.7592 -113.9099 -39.0935
ENERGY: 900000 0.4812 11.3526 4.8813 0.0000 -10794.8274 1447.3096 0.0000 0.0000 1822.8658 -7507.9369 310.3731 -9330.8027 -7418.2964 304.6835 -180.9858 -131.5594 30558.2502 -15.0909 51.0768
ENERGY: 1200000 3.0380 8.6943 5.4451 0.0000 -10738.3947 1506.8528 0.0000 0.0000 1771.2766 -7443.0878 301.5892 -9214.3644 -7432.7584 302.5111 664.1347 751.6635 30317.7737 32.9164 99.6659
ENERGY: 1500000 3.0978 11.3490 6.8940 0.0000 -10764.8674 1479.0164 0.0000 0.0000 1774.2043 -7490.3060 302.0877 -9264.5103 -7437.2114 302.1823 26.2173 77.2631 30781.0255 21.4102 87.9377
TCL: Running FEP window  19: Lambda1 0.9000000000000002 Lambda2 0.9500000000000003 [dLambda 0.050000000000000044]
TCL: Setting parameter firsttimestep to 0
TCL: Setting parameter alchLambda to 0.9000000000000002
Info: NONBONDED TABLE R-SQUARED SPACING: 0.0625
Info: NONBONDED TABLE SIZE: 705 POINTS
TCL: Setting parameter alchLambda2 to 0.9500000000000003
Info: NONBONDED TABLE R-SQUARED SPACING: 0.0625
Info: NONBONDED TABLE SIZE: 705 POINTS
TCL: Running for 1500000 steps
ETITLE: TS BOND ANGLE DIHED IMPRP ELECT VDW BOUNDARY MISC KINETIC TOTAL TEMP POTENTIAL TOTALAVG TEMPAVG PRESSURE GPRESSURE VOLUME PRESSAVG GPRESSAVG
ENERGY: 0 3.0978 11.3490 6.8940 0.0000 -10766.7882 1480.3429 0.0000 0.0000 1773.3528 -7491.7517 301.9427 -9265.1045 -7491.7517 301.9427 20.0987 102.4818 30781.0255 20.0987 102.4818
ENERGY: 300000 1.3024 7.1318 7.0204 0.0000 -10802.4926 1541.0825 0.0000 0.0000 1807.5583 -7438.3972 307.7668 -9245.9555 -7487.7466 299.3254 856.8082 938.6825 30319.8483 711.3603 772.5304
ENERGY: 600000 3.9674 9.8244 4.6673 0.0000 -10555.3110 1426.5013 0.0000 0.0000 1795.2101 -7315.1405 305.6643 -9110.3505 -7465.6597 299.0407 -23.1977 95.3979 31042.1536 308.0243 365.2033
ENERGY: 900000 2.0860 7.1515 5.4455 0.0000 -10587.0878 1448.1551 0.0000 0.0000 1706.8876 -7417.3622 290.6259 -9124.2498 -7466.6460 298.8423 445.5478 521.5892 30206.8892 171.0595 234.6789
ENERGY: 1200000 3.7464 13.9051 5.9219 0.0000 -10619.2432 1381.7256 0.0000 0.0000 1751.3520 -7462.5922 298.1967 -9213.9442 -7469.2419 298.8968 -338.6976 -258.6235 30373.5514 143.9312 207.1116
ENERGY: 1500000 3.1257 8.9215 5.4953 0.0000 -10555.2113 1350.0415 0.0000 0.0000 1728.2476 -7459.3797 294.2628 -9187.6272 -7468.4315 298.3379 -583.4043 -390.8894 30388.0216 82.0985 149.9837
TCL: Running FEP window  20: Lambda1 0.9500000000000003 Lambda2 1.0    [dLambda 0.04999999999999971]
TCL: Setting parameter firsttimestep to 0
TCL: Setting parameter alchLambda to 0.9500000000000003
Info: NONBONDED TABLE R-SQUARED SPACING: 0.0625
Info: NONBONDED TABLE SIZE: 705 POINTS
TCL: Setting parameter alchLambda2 to 1.0
Info: NONBONDED TABLE R-SQUARED SPACING: 0.0625
Info: NONBONDED TABLE SIZE: 705 POINTS
TCL: Running for 1500000 steps
ETITLE: TS BOND ANGLE DIHED IMPRP ELECT VDW BOUNDARY MISC KINETIC TOTAL TEMP POTENTIAL TOTALAVG TEMPAVG PRESSURE GPRESSURE VOLUME PRESSAVG GPRESSAVG
ENERGY: 0 3.1256 8.9215 5.4953 0.0000 -10556.1326 1350.1374 0.0000 0.0000 1727.3901 -7461.0627 294.1168 -9188.4528 -7461.0627 294.1168 -474.7324 -378.3499 30388.0216 -474.7324 -378.3499
ENERGY: 300000 3.7215 11.4466 5.1858 0.0000 -10715.3805 1434.9946 0.0000 0.0000 1759.4073 -7500.6248 299.5683 -9260.0321 -7485.7041 297.9770 151.3010 254.8062 29701.0496 59.6972 135.2282
ENERGY: 600000 0.8946 10.3519 6.8085 0.0000 -10690.5402 1445.5197 0.0000 0.0000 1763.4477 -7463.5178 300.2562 -9226.9655 -7486.9648 298.4670 10.2933 136.3437 30471.3844 82.9856 157.4955
ENERGY: 900000 1.3950 10.3825 5.4015 0.0000 -10680.5295 1471.7646 0.0000 0.0000 1767.1213 -7424.4646 300.8817 -9191.5859 -7494.9002 297.6611 505.8011 514.6674 30220.2178 0.3527 65.3878
ENERGY: 1200000 2.9528 11.4002 5.2441 0.0000 -10579.6849 1331.5497 0.0000 0.0000 1812.6887 -7415.8495 308.6403 -9228.5382 -7482.4622 299.4912 -698.5619 -633.7170 30573.7611 -148.1451 -77.7893
ENERGY: 1500000 3.9354 8.9317 5.0914 0.0000 -10672.5913 1429.9346 0.0000 0.0000 1754.9751 -7469.7231 298.8136 -9224.6982 -7470.2964 299.6466 47.0053 86.5995 30273.5448 -156.6431 -90.1190
TCL: Exiting due to exit command.
