Info: SIMULATION PARAMETERS:
Info: TIMESTEP               2
Info: NUMBER OF STEPS        0
Info: STEPS PER CYCLE        10
Info: PERIODIC CELL BASIS 1  34.8083 0 0
Info: PERIODIC CELL BASIS 2  0 30.0147 0
Info: PERIODIC CELL BASIS 3  0 0 29.2842
Info: PERIODIC CELL CENTER   0 0 0
Info: WRAPPING WATERS AROUND PERIODIC BOUNDARIES ON OUTPUT.
Info: WRAPPING ALL CLUSTERS AROUND PERIODIC BOUNDARIES ON OUTPUT.
Info: FIRST LDB TIMESTEP     50
Info: LAST LDB TIMESTEP     -1
Info: HOM BACKGROUND SCALING 1
Info: PME BACKGROUND SCALING 1
Info: MIN ATOMS PER PATCH    40
Info: EMPTY PATCH LOAD       40 ATOMS
Info: VELOCITY FILE          mobley_9015240_equil.vel
Info: CENTER OF MASS MOVING INITIALLY? NO
Info: DIELECTRIC             1
Info: EXCLUDE                SCALED ONE-FOUR
Info: 1-4 ELECTROSTATICS SCALED BY 0.833333
Info: MODIFIED 1-4 VDW PARAMETERS WILL BE USED
Info: DCD FILENAME           mobley_9015240_prod.dcd
Info: DCD FREQUENCY          100000
Info: DCD FIRST STEP         100000
Info: DCD FILE WILL CONTAIN UNIT CELL DATA
Info: XST FILENAME           mobley_9015240_prod.xst
Info: XST FREQUENCY          100000
Info: NO VELOCITY DCD OUTPUT
Info: NO FORCE DCD OUTPUT
Info: OUTPUT FILENAME        mobley_9015240_prod
Info: BINARY OUTPUT FILES WILL BE USED
Info: RESTART FILENAME       mobley_9015240_prod.restart
Info: RESTART FREQUENCY      100000
Info: BINARY RESTART FILES WILL BE USED
Info: CUTOFF                 9
Info: PAIRLIST DISTANCE      11
Info: PAIRLIST SHRINK RATE   0.01
Info: PAIRLIST GROW RATE     0.01
Info: PAIRLIST TRIGGER       0.3
Info: PAIRLISTS PER CYCLE    2
Info: PAIRLISTS ENABLED
Info: MARGIN                 2
Info: HYDROGEN GROUP CUTOFF  2.5
Info: PATCH DIMENSION        15.5
Info: ENERGY OUTPUT STEPS    100000
Info: ENERGY EVALUATION STEPS    100000
Info: OUTPUT ENERGY PRECISION 4
Info: CROSSTERM ENERGY INCLUDED IN DIHEDRAL
Info: TIMING OUTPUT STEPS    1000000
Info: PRESSURE OUTPUT STEPS  100000
Info: ALCHEMICAL FEP ON
Info: FEP CURRENT LAMBDA VALUE     1
Info: FEP COMPARISON LAMBDA VALUE  0.95
Info: FEP INTRA-ALCHEMICAL NON-BONDED INTERACTIONS WILL BE RETAINED
Info: FEP INTRA-ALCHEMICAL BONDED INTERACTIONS WILL BE RETAINED
Info: FEP VDW SHIFTING COEFFICIENT 5
Info: FEP ELEC. ACTIVE FOR ANNIHILATED PARTICLES BETWEEN LAMBDA = 0 AND LAMBDA = 0.5
Info: FEP ELEC. ACTIVE FOR EXNIHILATED PARTICLES BETWEEN LAMBDA = 0.5 AND LAMBDA = 1
Info: FEP VDW ACTIVE FOR ANNIHILATED PARTICLES BETWEEN LAMBDA = 0 AND LAMBDA = 1
Info: FEP VDW ACTIVE FOR EXNIHILATED PARTICLES BETWEEN LAMBDA = 0 AND LAMBDA = 1
Info: FEP BOND ACTIVE FOR ANNIHILATED PARTICLES BETWEEN LAMBDA = 1 AND LAMBDA = 1
Info: FEP BOND ACTIVE FOR EXNIHILATED PARTICLES BETWEEN LAMBDA = 0 AND LAMBDA = 0
Info: LANGEVIN DYNAMICS ACTIVE
Info: LANGEVIN TEMPERATURE   300
Info: LANGEVIN USING BBK INTEGRATOR
Info: LANGEVIN DAMPING COEFFICIENT IS 1 INVERSE PS
Info: LANGEVIN DYNAMICS APPLIED TO HYDROGENS
Info: LANGEVIN PISTON PRESSURE CONTROL ACTIVE
Info:        TARGET PRESSURE IS 1.01325 BAR
Info:     OSCILLATION PERIOD IS 50 FS
Info:             DECAY TIME IS 25 FS
Info:     PISTON TEMPERATURE IS 300 K
Info:       PRESSURE CONTROL IS GROUP-BASED
Info:    INITIAL STRAIN RATE IS 0.000595669 0.000595669 0.000595669
Info:       CELL FLUCTUATION IS ISOTROPIC
Info: PARTICLE MESH EWALD (PME) ACTIVE
Info: PME TOLERANCE               1e-06
Info: PME EWALD COEFFICIENT       0.348832
Info: PME INTERPOLATION ORDER     4
Info: PME GRID DIMENSIONS         36 32 32
Info: PME MAXIMUM GRID SPACING    1
Info: PME CALCULATION WILL BE PERFORMED ON GPU
Info: FULL ELECTROSTATIC EVALUATION FREQUENCY      2
Info: USING VERLET I (r-RESPA) MTS SCHEME.
Info: C1 SPLITTING OF LONG RANGE ELECTROSTATICS
Info: PLACING ATOMS IN PATCHES BY HYDROGEN GROUPS
Info: RIGID BONDS TO HYDROGEN : ALL
Info:         ERROR TOLERANCE : 1e-08
Info:          MAX ITERATIONS : 100
Info: RIGID WATER USING SETTLE ALGORITHM
Info: RANDOM NUMBER SEED     1744061325
Info: USE HYDROGEN BONDS?    NO
Info: Using AMBER format force field!
Info: AMBER PARM FILE        mobley_9015240.prmtop
Info: COORDINATE PDB         mobley_9015240.pdb
Info: Exclusions will be read from PARM file!
Info: SCNB (VDW SCALING)     2
Info: USING ARITHMETIC MEAN TO COMBINE L-J SIGMA PARAMETERS
Info: BINARY COORDINATES     mobley_9015240_equil.coor
Info: SUMMARY OF PARAMETERS:
Info: 6 BONDS
Info: 7 ANGLES
Info:   7 HARMONIC
Info:   0 COSINE-BASED
Info: 8 DIHEDRAL
Info: 0 IMPROPER
Info: 0 CROSSTERM
Info: 0 VDW
Info: 21 VDW_PAIRS
Info: 0 NBTHOLE_PAIRS
Info: To read alchdata from file: mobley_9015240.pdb
Info: To read alchflag data from column: 5
Info: STRUCTURE SUMMARY:
Info: 2981 ATOMS
Info: 2980 BONDS
Info: 48 ANGLES
Info: 75 DIHEDRALS
Info: 0 IMPROPERS
Info: 0 CROSSTERMS
Info: 3091 EXCLUSIONS
Info: 2972 RIGID BONDS
Info: ALCH: 0 ATOMS TO DISAPPEAR IN FINAL STATE
Info: ALCH: 26 ATOMS TO APPEAR IN FINAL STATE
Info: 5971 DEGREES OF FREEDOM
Info: 994 HYDROGEN GROUPS
Info: 4 ATOMS IN LARGEST HYDROGEN GROUP
Info: 994 MIGRATION GROUPS
Info: 4 ATOMS IN LARGEST MIGRATION GROUP
Info: TOTAL MASS = 17938.9 amu
Info: TOTAL CHARGE = 3.07336e-08 e
Info: MASS DENSITY = 0.973654 g/cm^3
Info: ATOM DENSITY = 0.0974343 atoms/A^3
Info: ADDED 0 IMPLICIT EXCLUSIONS
Info: NONBONDED TABLE R-SQUARED SPACING: 0.0625
Info: NONBONDED TABLE SIZE: 705 POINTS
Info: REMOVING COM VELOCITY 0.165505 0.166349 0.016188
Info: Use 3D box decompostion in PME FFT.
Info: Updated CUDA force table with 4096 elements.
Info: Updated CUDA LJ table with 6 x 6 elements.
Info: Found 29 unique exclusion lists needing 104 bytes
TCL: Running for 1500000 steps
ETITLE: TS BOND ANGLE DIHED IMPRP ELECT VDW BOUNDARY MISC KINETIC TOTAL TEMP POTENTIAL TOTALAVG TEMPAVG PRESSURE GPRESSURE VOLUME PRESSAVG GPRESSAVG
ENERGY: 0 3.2345 6.7968 5.6526 0.0000 -10649.6958 1385.5403 0.0000 0.0000 1766.9475 -7481.5241 297.8290 -9248.4716 -7481.5241 297.8290 -376.9706 -297.6627 30594.9698 -376.9706 -297.6627
ENERGY: 300000 3.5058 11.3347 4.2385 0.0000 -10874.3788 1543.2847 0.0000 0.0000 1717.5674 -7594.4477 289.5057 -9312.0151 -7517.2913 296.7086 616.5933 673.0427 30864.5984 78.4733 150.9533
ENERGY: 600000 2.0612 13.1198 6.6409 0.0000 -10726.9188 1463.3763 0.0000 0.0000 1780.1994 -7461.5214 300.0627 -9241.7207 -7507.2314 298.5206 289.5138 342.5495 30940.4738 145.8685 219.0329
ENERGY: 900000 1.2031 13.2067 6.4185 0.0000 -10756.7548 1424.0929 0.0000 0.0000 1806.7702 -7505.0634 304.5413 -9311.8335 -7496.6857 299.5803 -78.7228 14.5646 30578.5795 239.1518 313.4486
ENERGY: 1200000 4.2751 11.0935 3.9572 0.0000 -10703.6624 1399.5229 0.0000 0.0000 1773.8457 -7510.9679 298.9917 -9284.8136 -7506.7503 298.0353 -81.0145 -68.9944 30390.3345 171.6431 230.0010
ENERGY: 1500000 4.2200 13.1786 3.9821 0.0000 -10567.8682 1270.3419 0.0000 0.0000 1785.0298 -7491.1159 300.8769 -9276.1456 -7509.7268 298.2140 -1342.9525 -1280.5029 30970.2643 65.7723 131.5046
TCL: Running FEP window   2: Lambda1 0.95   Lambda2 0.8999999999999999 [dLambda -0.050000000000000044]
TCL: Setting parameter firsttimestep to 0
TCL: Setting parameter alchLambda to 0.95
Info: NONBONDED TABLE R-SQUARED SPACING: 0.0625
Info: NONBONDED TABLE SIZE: 705 POINTS
TCL: Setting parameter alchLambda2 to 0.8999999999999999
Info: NONBONDED TABLE R-SQUARED SPACING: 0.0625
Info: NONBONDED TABLE SIZE: 705 POINTS
TCL: Running for 1500000 steps
ETITLE: TS BOND ANGLE DIHED IMPRP ELECT VDW BOUNDARY MISC KINETIC TOTAL TEMP POTENTIAL TOTALAVG TEMPAVG PRESSURE GPRESSURE VOLUME PRESSAVG GPRESSAVG
ENERGY: 0 4.2200 13.1786 3.9821 0.0000 -10567.7915 1270.4585 0.0000 0.0000 1784.1318 -7491.8204 300.7255 -9275.9522 -7491.8204 300.7255 -1383.6130 -1295.0012 30970.2643 -1383.6130 -1295.0012
ENERGY: 300000 2.3812 9.8134 4.8789 0.0000 -10743.5283 1409.9835 0.0000 0.0000 1789.8744 -7526.5969 301.6934 -9316.4713 -7527.5626 297.6931 -607.4702 -556.9991 31198.8144 -501.1893 -439.2482
ENERGY: 600000 3.1018 15.3751 4.8887 0.0000 -10929.6863 1472.5012 0.0000 0.0000 1747.5942 -7686.2253 294.5669 -9433.8196 -7540.3077 297.5002 -365.0693 -207.7352 30636.4112 -409.3664 -337.2724
ENERGY: 900000 3.3652 13.6524 6.9691 0.0000 -10868.7624 1452.9628 0.0000 0.0000 1707.7509 -7684.0620 287.8511 -9391.8129 -7549.3419 297.1887 -51.9246 -18.5407 30208.0261 -190.5850 -124.1663
ENERGY: 1200000 2.0370 12.6282 5.4188 0.0000 -10641.7218 1332.7688 0.0000 0.0000 1738.4220 -7550.4470 293.0208 -9288.8690 -7534.1937 298.2397 -1187.2297 -1115.0081 31660.9145 -305.0147 -238.0647
ENERGY: 1500000 2.8482 15.5514 7.2182 0.0000 -10749.0160 1476.5066 0.0000 0.0000 1800.3753 -7446.5164 303.4634 -9246.8917 -7528.4225 298.8441 291.2187 364.1338 30741.6240 -199.8744 -131.3271
TCL: Running FEP window   3: Lambda1 0.8999999999999999 Lambda2 0.8499999999999999 [dLambda -0.050000000000000044]
TCL: Setting parameter firsttimestep to 0
TCL: Setting parameter alchLambda to 0.8999999999999999
Info: NONBONDED TABLE R-SQUARED SPACING: 0.0625
Info: NONBONDED TABLE SIZE: 705 POINTS
TCL: Setting parameter alchLambda2 to 0.8499999999999999
Info: NONBONDED TABLE R-SQUARED SPACING: 0.0625
Info: NONBONDED TABLE SIZE: 705 POINTS
TCL: Running for 1500000 steps
ETITLE: TS BOND ANGLE DIHED IMPRP ELECT VDW BOUNDARY MISC KINETIC TOTAL TEMP POTENTIAL TOTALAVG TEMPAVG PRESSURE GPRESSURE VOLUME PRESSAVG GPRESSAVG
ENERGY: 0 2.8482 15.5514 7.2182 0.0000 -10748.7873 1477.0559 0.0000 0.0000 1799.4923 -7446.6213 303.3146 -9246.1136 -7446.6213 303.3146 269.4143 354.3876 30741.6240 269.4143 354.3876
ENERGY: 300000 3.4244 7.6197 5.1897 0.0000 -10822.3723 1507.2142 0.0000 0.0000 1746.8313 -7552.0930 294.4383 -9298.9243 -7504.5809 298.4210 530.1354 487.6888 30689.5777 83.5079 101.4070
ENERGY: 600000 3.4426 14.6554 5.5244 0.0000 -10760.1301 1464.4016 0.0000 0.0000 1785.1984 -7486.9078 300.9053 -9272.1062 -7512.1842 298.5884 638.4037 642.3264 30031.4858 107.0128 130.4333
ENERGY: 900000 3.9398 9.5539 4.7484 0.0000 -10649.0878 1329.2555 0.0000 0.0000 1806.2333 -7495.3569 304.4508 -9301.5901 -7517.3184 299.2326 -1015.9493 -929.0347 30726.7629 -64.3861 -19.8154
ENERGY: 1200000 5.9413 14.4374 6.8164 0.0000 -10818.4313 1459.7439 0.0000 0.0000 1873.4162 -7458.0760 315.7749 -9331.4922 -7507.7340 301.7152 -335.6948 -313.5279 31205.6851 -105.7637 -55.3973
ENERGY: 1500000 2.5513 6.9188 5.8301 0.0000 -10776.1301 1554.5282 0.0000 0.0000 1751.8445 -7454.4572 295.2833 -9206.3017 -7502.5821 301.3257 953.5722 1067.0924 30529.9599 -73.6998 -17.8640
TCL: Running FEP window   4: Lambda1 0.8499999999999999 Lambda2 0.7999999999999998 [dLambda -0.050000000000000044]
TCL: Setting parameter firsttimestep to 0
TCL: Setting parameter alchLambda to 0.8499999999999999
Info: NONBONDED TABLE R-SQUARED SPACING: 0.0625
Info: NONBONDED TABLE SIZE: 705 POINTS
TCL: Setting parameter alchLambda2 to 0.7999999999999998
Info: NONBONDED TABLE R-SQUARED SPACING: 0.0625
Info: NONBONDED TABLE SIZE: 705 POINTS
TCL: Running for 1500000 steps
ETITLE: TS BOND ANGLE DIHED IMPRP ELECT VDW BOUNDARY MISC KINETIC TOTAL TEMP POTENTIAL TOTALAVG TEMPAVG PRESSURE GPRESSURE VOLUME PRESSAVG GPRESSAVG
ENERGY: 0 2.5513 6.9188 5.8301 0.0000 -10775.9087 1554.7130 0.0000 0.0000 1750.9488 -7454.9467 295.1323 -9205.8955 -7454.9467 295.1323 975.7614 1051.6067 30529.9599 975.7614 1051.6067
ENERGY: 300000 2.7878 15.0053 5.8309 0.0000 -10698.6631 1470.5797 0.0000 0.0000 1765.8796 -7438.5799 297.6490 -9204.4594 -7448.1860 298.8289 438.4215 513.4726 30774.1235 393.7264 467.6620
ENERGY: 600000 1.8607 9.9835 6.8819 0.0000 -10672.6716 1411.0018 0.0000 0.0000 1763.5233 -7479.4205 297.2518 -9242.9438 -7477.0741 298.1875 44.0827 122.0246 30372.5620 255.0721 317.1474
ENERGY: 900000 1.2992 14.4005 4.5148 0.0000 -10779.7292 1453.8564 0.0000 0.0000 1830.7867 -7474.8716 308.5894 -9305.6583 -7477.2424 299.1900 195.2285 299.1333 30517.2248 248.8129 319.7869
ENERGY: 1200000 1.8551 8.8612 4.3836 0.0000 -10774.6144 1519.5272 0.0000 0.0000 1774.5349 -7465.4525 299.1079 -9239.9873 -7486.6404 298.1059 603.2324 754.2648 30825.7126 158.6793 236.6278
ENERGY: 1500000 3.6261 18.9384 5.3506 0.0000 -10775.2661 1452.2959 0.0000 0.0000 1777.9737 -7517.0814 299.6875 -9295.0551 -7492.7992 298.2573 179.0857 232.2021 30500.6918 76.3738 146.6321
TCL: Running FEP window   5: Lambda1 0.7999999999999998 Lambda2 0.7499999999999998 [dLambda -0.050000000000000044]
TCL: Setting parameter firsttimestep to 0
TCL: Setting parameter alchLambda to 0.7999999999999998
Info: NONBONDED TABLE R-SQUARED SPACING: 0.0625
Info: NONBONDED TABLE SIZE: 705 POINTS
TCL: Setting parameter alchLambda2 to 0.7499999999999998
Info: NONBONDED TABLE R-SQUARED SPACING: 0.0625
Info: NONBONDED TABLE SIZE: 705 POINTS
TCL: Running for 1500000 steps
ETITLE: TS BOND ANGLE DIHED IMPRP ELECT VDW BOUNDARY MISC KINETIC TOTAL TEMP POTENTIAL TOTALAVG TEMPAVG PRESSURE GPRESSURE VOLUME PRESSAVG GPRESSAVG
ENERGY: 0 3.6261 18.9384 5.3506 0.0000 -10775.2289 1452.8639 0.0000 0.0000 1777.0449 -7517.4050 299.5310 -9294.4499 -7517.4050 299.5310 133.3624 221.7978 30500.6918 133.3624 221.7978
ENERGY: 300000 2.7504 8.0042 4.8195 0.0000 -10803.8644 1457.8332 0.0000 0.0000 1769.4746 -7560.9825 298.2549 -9330.4571 -7520.6339 297.8035 5.1672 -34.4910 30622.1056 94.3151 130.3299
ENERGY: 600000 3.5566 19.1199 4.0101 0.0000 -10718.0989 1366.6922 0.0000 0.0000 1817.5125 -7507.2075 306.3520 -9324.7200 -7517.0071 299.5525 -707.1134 -626.2739 30609.5248 -46.8019 -3.1346
ENERGY: 900000 3.6794 9.0782 5.1437 0.0000 -10657.0306 1336.0752 0.0000 0.0000 1772.1616 -7530.8925 298.7079 -9303.0542 -7514.1640 299.1597 -1104.0154 -1000.5854 31213.8663 -189.8700 -147.7494
ENERGY: 1200000 4.9099 9.5158 6.0666 0.0000 -10587.6417 1288.8648 0.0000 0.0000 1768.7618 -7509.5227 298.1348 -9278.2845 -7527.3270 298.1358 -1176.1107 -1171.3430 30663.7714 -257.1446 -216.5332
ENERGY: 1500000 3.4018 15.7474 4.7192 0.0000 -10697.1360 1417.8291 0.0000 0.0000 1743.0469 -7512.3915 293.8004 -9255.4385 -7525.9360 297.2754 -151.9467 -84.1095 30743.7775 -242.2045 -196.9720
TCL: Running FEP window   6: Lambda1 0.7499999999999998 Lambda2 0.6999999999999997 [dLambda -0.050000000000000044]
TCL: Setting parameter firsttimestep to 0
TCL: Setting parameter alchLambda to 0.7499999999999998
Info: NONBONDED TABLE R-SQUARED SPACING: 0.0625
Info: NONBONDED TABLE SIZE: 705 POINTS
TCL: Setting parameter alchLambda2 to 0.6999999999999997
Info: NONBONDED TABLE R-SQUARED SPACING: 0.0625
Info: NONBONDED TABLE SIZE: 705 POINTS
TCL: Running for 1500000 steps
ETITLE: TS BOND ANGLE DIHED IMPRP ELECT VDW BOUNDARY MISC KINETIC TOTAL TEMP POTENTIAL TOTALAVG TEMPAVG PRESSURE GPRESSURE VOLUME PRESSAVG GPRESSAVG
ENERGY: 0 3.4018 15.7474 4.7192 0.0000 -10697.0787 1418.4649 0.0000 0.0000 1742.1728 -7512.5725 293.6531 -9254.7454 -7512.5725 293.6531 -176.9619 -94.3477 30743.7775 -176.9619 -94.3477
ENERGY: 300000 2.3041 12.5408 7.6936 0.0000 -10758.4226 1501.6185 0.0000 0.0000 1785.2213 -7449.0442 300.9091 -9234.2655 -7505.4298 298.9719 820.1670 841.5522 30571.1546 217.2949 260.0871
ENERGY: 600000 1.2015 14.6410 6.3467 0.0000 -10926.3968 1512.5722 0.0000 0.0000 1808.2799 -7583.3556 304.7958 -9391.6354 -7524.3536 298.8886 792.9645 796.4050 30164.3074 240.9767 281.2539
ENERGY: 900000 2.3481 12.6689 5.2832 0.0000 -10726.9431 1402.1630 0.0000 0.0000 1762.8246 -7541.6554 297.1340 -9304.4800 -7527.6216 298.1398 -314.5025 -298.7519 30592.4478 92.3370 135.5492
ENERGY: 1200000 4.3412 14.6545 7.1639 0.0000 -10739.4415 1420.4390 0.0000 0.0000 1828.1125 -7464.7303 308.1387 -9292.8429 -7523.8750 299.1491 -206.7240 -183.0350 30537.3506 110.0672 151.0121
ENERGY: 1500000 0.4079 13.2475 4.8067 0.0000 -10733.7383 1394.2997 0.0000 0.0000 1784.9521 -7536.0244 300.8638 -9320.9765 -7530.4974 299.0796 -247.6504 -180.5197 30406.1726 6.7830 56.9929
TCL: Running FEP window   7: Lambda1 0.6999999999999997 Lambda2 0.6499999999999997 [dLambda -0.050000000000000044]
TCL: Setting parameter firsttimestep to 0
TCL: Setting parameter alchLambda to 0.6999999999999997
Info: NONBONDED TABLE R-SQUARED SPACING: 0.0625
Info: NONBONDED TABLE SIZE: 705 POINTS
TCL: Setting parameter alchLambda2 to 0.6499999999999997
Info: NONBONDED TABLE R-SQUARED SPACING: 0.0625
Info: NONBONDED TABLE SIZE: 705 POINTS
TCL: Running for 1500000 steps
ETITLE: TS BOND ANGLE DIHED IMPRP ELECT VDW BOUNDARY MISC KINETIC TOTAL TEMP POTENTIAL TOTALAVG TEMPAVG PRESSURE GPRESSURE VOLUME PRESSAVG GPRESSAVG
ENERGY: 0 0.4079 13.2475 4.8067 0.0000 -10733.3537 1394.2844 0.0000 0.0000 1784.0507 -7536.5565 300.7118 -9320.6073 -7536.5565 300.7118 -284.4548 -196.8162 30406.1726 -284.4548 -196.8162
ENERGY: 300000 1.6688 8.9067 7.9227 0.0000 -10701.2965 1363.9220 0.0000 0.0000 1767.5790 -7551.2974 297.9354 -9318.8763 -7519.8086 299.5648 -641.9625 -584.7032 30438.9610 -326.9675 -268.3743
ENERGY: 600000 1.5449 12.1230 6.5192 0.0000 -10683.0762 1370.6908 0.0000 0.0000 1714.2401 -7577.9581 288.9449 -9292.1982 -7538.9099 298.4425 -560.3169 -514.8241 30612.2229 -416.4376 -362.5146
ENERGY: 900000 3.3742 9.6678 6.4198 0.0000 -10791.6905 1489.7683 0.0000 0.0000 1792.4408 -7490.0194 302.1260 -9282.4603 -7525.0727 299.5331 206.6157 271.4066 30756.7868 -273.9841 -223.8408
ENERGY: 1200000 1.6265 16.2719 5.0856 0.0000 -10521.4678 1302.2829 0.0000 0.0000 1832.7679 -7363.4330 308.9234 -9196.2009 -7508.6031 300.4943 -968.7851 -940.2035 31156.6924 -269.8205 -220.6870
ENERGY: 1500000 2.0536 12.3346 3.9822 0.0000 -10721.9668 1386.6995 0.0000 0.0000 1779.3351 -7537.5619 299.9170 -9316.8969 -7512.4639 299.9789 -474.4807 -415.8748 30827.3044 -325.2851 -274.7018
TCL: Running FEP window   8: Lambda1 0.6499999999999997 Lambda2 0.5999999999999996 [dLambda -0.050000000000000044]
TCL: Setting parameter firsttimestep to 0
TCL: Setting parameter alchLambda to 0.6499999999999997
Info: NONBONDED TABLE R-SQUARED SPACING: 0.0625
Info: NONBONDED TABLE SIZE: 705 POINTS
TCL: Setting parameter alchLambda2 to 0.5999999999999996
Info: NONBONDED TABLE R-SQUARED SPACING: 0.0625
Info: NONBONDED TABLE SIZE: 705 POINTS
TCL: Running for 1500000 steps
ETITLE: TS BOND ANGLE DIHED IMPRP ELECT VDW BOUNDARY MISC KINETIC TOTAL TEMP POTENTIAL TOTALAVG TEMPAVG PRESSURE GPRESSURE VOLUME PRESSAVG GPRESSAVG
ENERGY: 0 2.0536 12.3346 3.9822 0.0000 -10721.9767 1387.5885 0.0000 0.0000 1778.4635 -7537.5542 299.7701 -9316.0177 -7537.5542 299.7701 -495.5053 -419.0240 30827.3044 -495.5053 -419.0240
ENERGY: 300000 1.5274 11.4072 4.7308 0.0000 -10787.4765 1447.2170 0.0000 0.0000 1781.3417 -7541.2525 300.2552 -9322.5942 -7513.7419 298.9673 -150.0933 -131.1938 30704.2975 -285.4475 -247.4753
ENERGY: 600000 2.5515 9.0823 4.9932 0.0000 -10795.4063 1498.4484 0.0000 0.0000 1740.0092 -7540.3217 293.2884 -9280.3309 -7536.9958 296.4732 556.7799 609.0674 30262.2287 81.4408 121.8119
ENERGY: 900000 2.8167 12.4925 8.1324 0.0000 -10764.1965 1481.1630 0.0000 0.0000 1768.1332 -7491.4588 298.0288 -9259.5920 -7533.7025 296.0676 150.2414 208.7088 30666.3716 127.0522 170.2699
ENERGY: 1200000 2.7686 14.4765 4.9320 0.0000 -10703.8502 1424.2318 0.0000 0.0000 1779.2241 -7478.2172 299.8983 -9257.4414 -7524.2695 297.3463 -88.5072 -58.3056 30750.5365 25.0205 69.1230
ENERGY: 1500000 4.0284 14.9168 4.1974 0.0000 -10771.7594 1403.6667 0.0000 0.0000 1768.8497 -7576.1002 298.1496 -9344.9500 -7521.6906 298.2354 -484.0997 -391.6847 30574.0587 11.5123 65.7813
TCL: Running FEP window   9: Lambda1 0.5999999999999996 Lambda2 0.5499999999999996 [dLambda -0.050000000000000044]
TCL: Setting parameter firsttimestep to 0
TCL: Setting parameter alchLambda to 0.5999999999999996
Info: NONBONDED TABLE R-SQUARED SPACING: 0.0625
Info: NONBONDED TABLE SIZE: 705 POINTS
TCL: Setting parameter alchLambda2 to 0.5499999999999996
Info: NONBONDED TABLE R-SQUARED SPACING: 0.0625
Info: NONBONDED TABLE SIZE: 705 POINTS
TCL: Running for 1500000 steps
ETITLE: TS BOND ANGLE DIHED IMPRP ELECT VDW BOUNDARY MISC KINETIC TOTAL TEMP POTENTIAL TOTALAVG TEMPAVG PRESSURE GPRESSURE VOLUME PRESSAVG GPRESSAVG
ENERGY: 0 4.0284 14.9168 4.1974 0.0000 -10771.6697 1404.0634 0.0000 0.0000 1767.9399 -7576.5238 297.9963 -9344.4636 -7576.5238 297.9963 -492.6370 -400.8021 30574.0587 -492.6370 -400.8021
ENERGY: 300000 1.6971 16.2879 6.2766 0.0000 -10697.5951 1404.3526 0.0000 0.0000 1759.2986 -7509.6825 296.5397 -9268.9810 -7521.3147 301.3546 -621.9061 -547.0074 31205.1275 -380.6723 -316.3870
ENERGY: 600000 5.7451 14.8396 4.2582 0.0000 -10685.4140 1438.3282 0.0000 0.0000 1813.1940 -7409.0490 305.6241 -9222.2430 -7512.5920 302.0009 6.2869 -24.5813 30848.0691 -188.4316 -140.0672
ENERGY: 900000 2.5437 10.5109 3.3219 0.0000 -10631.1765 1362.5785 0.0000 0.0000 1808.8937 -7443.3277 304.8993 -9252.2215 -7497.7214 303.7220 -737.0924 -636.3525 31026.6454 -144.6130 -92.9859
ENERGY: 1200000 3.9003 14.2453 4.5752 0.0000 -10536.7940 1330.1068 0.0000 0.0000 1801.8730 -7382.0935 303.7159 -9183.9665 -7487.3853 303.9525 -816.4099 -764.3795 30939.5220 -117.4775 -67.1911
ENERGY: 1500000 3.4169 14.7657 7.8066 0.0000 -10687.0229 1421.9368 0.0000 0.0000 1793.3943 -7445.7025 302.2867 -9239.0968 -7485.1814 302.9032 -81.3678 -44.6402 30770.7416 -66.5739 -19.5075
TCL: Running FEP window  10: Lambda1 0.5499999999999996 Lambda2 0.4999999999999996 [dLambda -0.04999999999999999]
TCL: Setting parameter firsttimestep to 0
TCL: Setting parameter alchLambda to 0.5499999999999996
Info: NONBONDED TABLE R-SQUARED SPACING: 0.0625
Info: NONBONDED TABLE SIZE: 705 POINTS
TCL: Setting parameter alchLambda2 to 0.4999999999999996
Info: NONBONDED TABLE R-SQUARED SPACING: 0.0625
Info: NONBONDED TABLE SIZE: 705 POINTS
TCL: Running for 1500000 steps
ETITLE: TS BOND ANGLE DIHED IMPRP ELECT VDW BOUNDARY MISC KINETIC TOTAL TEMP POTENTIAL TOTALAVG TEMPAVG PRESSURE GPRESSURE VOLUME PRESSAVG GPRESSAVG
ENERGY: 0 3.4169 14.7657 7.8066 0.0000 -10687.2953 1422.1227 0.0000 0.0000 1792.4767 -7446.7067 302.1321 -9239.1834 -7446.7067 302.1321 -127.7131 -53.0417 30770.7416 -127.7131 -53.0417
ENERGY: 300000 2.7321 13.5689 4.7587 0.0000 -10741.1034 1418.5105 0.0000 0.0000 1702.3715 -7599.1616 286.9443 -9301.5332 -7526.4707 294.4130 -275.1114 -230.7760 30824.9482 -256.6914 -198.6760
ENERGY: 600000 5.7601 9.0554 9.2191 0.0000 -10820.6315 1477.3030 0.0000 0.0000 1765.1543 -7554.1395 297.5267 -9319.2938 -7517.5624 297.1465 358.5636 414.1268 30381.4641 -178.1573 -103.3735
ENERGY: 900000 1.5454 20.4479 4.8377 0.0000 -10744.3459 1455.9582 0.0000 0.0000 1769.5113 -7492.0454 298.2611 -9261.5567 -7522.8032 298.3079 166.4829 226.1843 30596.9517 -112.8731 -45.9031
ENERGY: 1200000 2.5940 19.2459 6.7494 0.0000 -10615.1365 1377.3538 0.0000 0.0000 1790.3993 -7418.7940 301.7819 -9209.1933 -7516.6140 298.5522 -444.7827 -355.2185 30787.2505 -203.5424 -131.0255
ENERGY: 1500000 1.3615 16.3987 4.3219 0.0000 -10832.4825 1536.1128 0.0000 0.0000 1806.5064 -7467.7812 304.4969 -9274.2876 -7508.0244 299.9664 952.0897 1078.3132 30343.1989 -51.8242 25.2262
TCL: Running FEP window  11: Lambda1 0.4999999999999996 Lambda2 0.4499999999999996 [dLambda -0.04999999999999999]
TCL: Setting parameter firsttimestep to 0
TCL: Setting parameter alchLambda to 0.4999999999999996
Info: NONBONDED TABLE R-SQUARED SPACING: 0.0625
Info: NONBONDED TABLE SIZE: 705 POINTS
TCL: Setting parameter alchLambda2 to 0.4499999999999996
Info: NONBONDED TABLE R-SQUARED SPACING: 0.0625
Info: NONBONDED TABLE SIZE: 705 POINTS
TCL: Running for 1500000 steps
ETITLE: TS BOND ANGLE DIHED IMPRP ELECT VDW BOUNDARY MISC KINETIC TOTAL TEMP POTENTIAL TOTALAVG TEMPAVG PRESSURE GPRESSURE VOLUME PRESSAVG GPRESSAVG
ENERGY: 0 1.3615 16.3987 4.3219 0.0000 -10832.4374 1536.2368 0.0000 0.0000 1805.6722 -7468.4464 304.3562 -9274.1185 -7468.4464 304.3562 976.9417 1067.4284 30343.1989 976.9417 1067.4284
ENERGY: 300000 2.7819 10.7260 4.9951 0.0000 -10817.2315 1463.0241 0.0000 0.0000 1817.6900 -7518.0144 306.3819 -9335.7044 -7517.4399 302.2600 -158.3936 -140.6711 30809.5791 295.0688 356.7670
ENERGY: 600000 1.6029 12.9853 6.1118 0.0000 -10748.4521 1449.0811 0.0000 0.0000 1798.0091 -7480.6619 303.0646 -9278.6710 -7498.0652 302.0354 127.4223 179.8135 30446.7516 229.8436 291.4078
ENERGY: 900000 5.1062 12.0804 7.0829 0.0000 -10668.3636 1410.8286 0.0000 0.0000 1759.3963 -7473.8692 296.5562 -9233.2655 -7497.8642 301.7831 -319.5931 -283.9272 31113.0744 228.8440 290.0067
ENERGY: 1200000 0.8222 18.1068 6.6831 0.0000 -10777.0478 1467.7814 0.0000 0.0000 1743.4334 -7540.2208 293.8655 -9283.6542 -7502.1440 301.7452 189.6770 219.1088 30629.9093 213.9214 271.6855
ENERGY: 1500000 2.7787 16.4935 5.4359 0.0000 -10775.1667 1471.3687 0.0000 0.0000 1796.2831 -7482.8067 302.7737 -9279.0898 -7498.3688 302.1479 375.9606 384.5103 30785.5006 282.9186 341.2492
TCL: Running FEP window  12: Lambda1 0.4499999999999996 Lambda2 0.39999999999999963 [dLambda -0.04999999999999999]
TCL: Setting parameter firsttimestep to 0
TCL: Setting parameter alchLambda to 0.4499999999999996
Info: NONBONDED TABLE R-SQUARED SPACING: 0.0625
Info: NONBONDED TABLE SIZE: 705 POINTS
TCL: Setting parameter alchLambda2 to 0.39999999999999963
Info: NONBONDED TABLE R-SQUARED SPACING: 0.0625
Info: NONBONDED TABLE SIZE: 705 POINTS
TCL: Running for 1500000 steps
ETITLE: TS BOND ANGLE DIHED IMPRP ELECT VDW BOUNDARY MISC KINETIC TOTAL TEMP POTENTIAL TOTALAVG TEMPAVG PRESSURE GPRESSURE VOLUME PRESSAVG GPRESSAVG
ENERGY: 0 2.7787 16.4935 5.4359 0.0000 -10775.1669 1471.3521 0.0000 0.0000 1795.4118 -7483.6949 302.6268 -9279.1066 -7483.6949 302.6268 297.6336 372.5278 30785.5006 297.6336 372.5278
ENERGY: 300000 1.5289 12.0449 6.8145 0.0000 -10920.7888 1536.4137 0.0000 0.0000 1783.9741 -7580.0128 300.6989 -9363.9868 -7512.3881 303.4618 663.8380 669.4814 30430.0225 255.1617 302.7478
ENERGY: 600000 2.8347 15.4688 4.5890 0.0000 -10596.6704 1369.0369 0.0000 0.0000 1763.8279 -7440.9131 297.3032 -9204.7410 -7506.0471 301.5548 -456.6325 -394.1131 30849.2564 112.1362 168.4988
ENERGY: 900000 1.4165 8.3426 4.6713 0.0000 -10803.0165 1451.4310 0.0000 0.0000 1804.9992 -7532.1559 304.2428 -9337.1550 -7492.8915 302.6033 107.3505 166.0956 30175.0291 162.3344 223.3402
ENERGY: 1200000 2.4438 10.1573 4.8758 0.0000 -10707.7123 1422.4423 0.0000 0.0000 1789.1580 -7478.6350 301.5727 -9267.7930 -7486.7063 302.0219 191.7547 244.8830 30402.3652 146.0110 206.5556
ENERGY: 1500000 3.6500 13.3874 5.2196 0.0000 -10885.8219 1505.6392 0.0000 0.0000 1813.9018 -7544.0240 305.7434 -9357.9258 -7489.3741 302.0675 -47.1292 39.5560 30553.0928 147.8537 208.4753
TCL: Running FEP window  13: Lambda1 0.39999999999999963 Lambda2 0.34999999999999964 [dLambda -0.04999999999999999]
TCL: Setting parameter firsttimestep to 0
TCL: Setting parameter alchLambda to 0.39999999999999963
Info: NONBONDED TABLE R-SQUARED SPACING: 0.0625
Info: NONBONDED TABLE SIZE: 705 POINTS
TCL: Setting parameter alchLambda2 to 0.34999999999999964
Info: NONBONDED TABLE R-SQUARED SPACING: 0.0625
Info: NONBONDED TABLE SIZE: 705 POINTS
TCL: Running for 1500000 steps
ETITLE: TS BOND ANGLE DIHED IMPRP ELECT VDW BOUNDARY MISC KINETIC TOTAL TEMP POTENTIAL TOTALAVG TEMPAVG PRESSURE GPRESSURE VOLUME PRESSAVG GPRESSAVG
ENERGY: 0 3.6500 13.3874 5.2196 0.0000 -10885.8213 1506.1544 0.0000 0.0000 1813.0172 -7544.3927 305.5943 -9357.4099 -7544.3927 305.5943 -44.0596 34.4716 30553.0928 -44.0596 34.4716
ENERGY: 300000 2.7448 10.5177 4.4081 0.0000 -10653.3083 1397.7060 0.0000 0.0000 1768.3893 -7469.5425 298.0720 -9237.9318 -7496.5295 300.5723 -297.5305 -192.3912 30716.7091 287.9353 361.6002
ENERGY: 600000 3.0429 10.2676 5.4969 0.0000 -10771.8137 1510.4195 0.0000 0.0000 1758.2260 -7484.3608 296.3589 -9242.5868 -7464.8400 301.2657 449.4205 524.0299 30783.2901 317.0563 384.2059
ENERGY: 900000 2.7246 11.0242 5.3337 0.0000 -10871.5685 1488.2447 0.0000 0.0000 1777.1820 -7587.0593 299.5541 -9364.2412 -7483.3371 300.7820 177.1224 257.4642 30262.6586 291.8811 353.3261
ENERGY: 1200000 4.2524 8.9452 5.7375 0.0000 -10624.4365 1366.5938 0.0000 0.0000 1806.8590 -7432.0485 304.5563 -9238.9075 -7484.3465 301.3411 -421.4631 -440.1882 30687.2297 226.1359 278.8860
ENERGY: 1500000 0.8052 12.4603 6.3533 0.0000 -10779.9707 1446.3746 0.0000 0.0000 1733.2618 -7580.7154 292.1511 -9313.9772 -7494.8935 301.3339 126.3764 147.0760 30230.5844 285.4444 334.2656
TCL: Running FEP window  14: Lambda1 0.34999999999999964 Lambda2 0.29999999999999966 [dLambda -0.04999999999999999]
TCL: Setting parameter firsttimestep to 0
TCL: Setting parameter alchLambda to 0.34999999999999964
Info: NONBONDED TABLE R-SQUARED SPACING: 0.0625
Info: NONBONDED TABLE SIZE: 705 POINTS
TCL: Setting parameter alchLambda2 to 0.29999999999999966
Info: NONBONDED TABLE R-SQUARED SPACING: 0.0625
Info: NONBONDED TABLE SIZE: 705 POINTS
TCL: Running for 1500000 steps
ETITLE: TS BOND ANGLE DIHED IMPRP ELECT VDW BOUNDARY MISC KINETIC TOTAL TEMP POTENTIAL TOTALAVG TEMPAVG PRESSURE GPRESSURE VOLUME PRESSAVG GPRESSAVG
ENERGY: 0 0.8052 12.4603 6.3533 0.0000 -10779.9711 1446.8541 0.0000 0.0000 1732.3783 -7581.1198 292.0021 -9313.4981 -7581.1198 292.0021 82.4055 141.7469 30230.5844 82.4055 141.7469
ENERGY: 300000 2.3548 13.7875 5.9106 0.0000 -10733.0022 1482.1312 0.0000 0.0000 1808.1179 -7420.7003 304.7685 -9228.8182 -7523.1184 297.6750 599.1516 690.6147 30308.9962 265.4954 360.8602
ENERGY: 600000 2.7493 12.7203 4.4859 0.0000 -10772.1083 1429.6792 0.0000 0.0000 1772.7354 -7549.7381 298.8046 -9322.4735 -7529.2030 298.6293 -208.8785 -93.6050 30293.5122 45.0809 127.8056
ENERGY: 900000 4.5706 9.6835 4.1894 0.0000 -10675.9718 1402.4968 0.0000 0.0000 1768.3767 -7486.6548 298.0699 -9255.0315 -7521.6728 300.0704 -395.1042 -323.0083 30804.2980 -68.4490 10.8723
ENERGY: 1200000 1.9219 10.8940 5.1706 0.0000 -10708.8314 1424.8193 0.0000 0.0000 1789.1993 -7476.8261 301.5797 -9266.0255 -7520.4465 299.6872 -255.3654 -118.6194 30579.5620 -60.7481 25.1540
ENERGY: 1500000 2.9066 8.7065 3.9812 0.0000 -10785.2149 1458.5891 0.0000 0.0000 1759.0562 -7551.9753 296.4989 -9311.0315 -7520.6841 299.7157 124.3137 205.0235 30210.1277 -40.6307 33.2943
TCL: Running FEP window  15: Lambda1 0.29999999999999966 Lambda2 0.24999999999999967 [dLambda -0.04999999999999999]
TCL: Setting parameter firsttimestep to 0
TCL: Setting parameter alchLambda to 0.29999999999999966
Info: NONBONDED TABLE R-SQUARED SPACING: 0.0625
Info: NONBONDED TABLE SIZE: 705 POINTS
TCL: Setting parameter alchLambda2 to 0.24999999999999967
Info: NONBONDED TABLE R-SQUARED SPACING: 0.0625
Info: NONBONDED TABLE SIZE: 705 POINTS
TCL: Running for 1500000 steps
ETITLE: TS BOND ANGLE DIHED IMPRP ELECT VDW BOUNDARY MISC KINETIC TOTAL TEMP POTENTIAL TOTALAVG TEMPAVG PRESSURE GPRESSURE VOLUME PRESSAVG GPRESSAVG
ENERGY: 0 2.9066 8.7065 3.9812 0.0000 -10785.2156 1458.8444 0.0000 0.0000 1758.1497 -7552.6272 296.3461 -9310.7769 -7552.6272 296.3461 108.5563 198.9251 30210.1277 108.5563 198.9251
ENERGY: 300000 0.5938 15.2425 5.0178 0.0000 -10718.6044 1430.5667 0.0000 0.0000 1816.4449 -7450.7388 306.1721 -9267.1837 -7517.4388 298.7172 -60.0317 -29.0119 30807.2056 288.0091 342.6430
ENERGY: 600000 0.9119 12.5581 5.1991 0.0000 -10675.0205 1394.2461 0.0000 0.0000 1787.1510 -7474.9543 301.2344 -9262.1053 -7514.1649 297.3963 -95.2531 -67.7806 30225.9641 114.3815 156.0423
ENERGY: 900000 6.9113 14.1185 5.8663 0.0000 -10780.8785 1450.3888 0.0000 0.0000 1816.8277 -7486.7660 306.2366 -9303.5937 -7505.4446 298.6579 31.0490 85.9330 30159.3756 97.9200 143.5727
ENERGY: 1200000 1.2918 11.2789 4.5856 0.0000 -10614.4406 1370.0830 0.0000 0.0000 1763.5454 -7463.6561 297.2555 -9227.2014 -7506.2718 298.2841 -392.4468 -298.9563 30460.9239 117.5989 169.6614
ENERGY: 1500000 1.3274 14.7779 6.0597 0.0000 -10639.7107 1365.9881 0.0000 0.0000 1789.5362 -7462.0215 301.6364 -9251.5577 -7505.5932 298.4744 -664.4050 -599.7220 30698.5947 63.1584 109.9344
TCL: Running FEP window  16: Lambda1 0.24999999999999967 Lambda2 0.19999999999999968 [dLambda -0.04999999999999999]
TCL: Setting parameter firsttimestep to 0
TCL: Setting parameter alchLambda to 0.24999999999999967
Info: NONBONDED TABLE R-SQUARED SPACING: 0.0625
Info: NONBONDED TABLE SIZE: 705 POINTS
TCL: Setting parameter alchLambda2 to 0.19999999999999968
Info: NONBONDED TABLE R-SQUARED SPACING: 0.0625
Info: NONBONDED TABLE SIZE: 705 POINTS
TCL: Running for 1500000 steps
ETITLE: TS BOND ANGLE DIHED IMPRP ELECT VDW BOUNDARY MISC KINETIC TOTAL TEMP POTENTIAL TOTALAVG TEMPAVG PRESSURE GPRESSURE VOLUME PRESSAVG GPRESSAVG
ENERGY: 0 1.3274 14.7779 6.0597 0.0000 -10639.7114 1366.0952 0.0000 0.0000 1788.6643 -7462.7869 301.4895 -9251.4512 -7462.7869 301.4895 -683.6348 -605.1204 30698.5947 -683.6348 -605.1204
ENERGY: 300000 4.5429 11.1102 4.6856 0.0000 -10686.6942 1431.2611 0.0000 0.0000 1766.2732 -7468.8213 297.7153 -9235.0945 -7506.6537 298.9524 -252.9350 -207.2677 30763.0992 -315.7096 -240.1707
ENERGY: 600000 4.3272 14.8175 5.1641 0.0000 -10708.5467 1449.8027 0.0000 0.0000 1804.5565 -7429.8787 304.1682 -9234.4352 -7473.3183 299.9944 91.2664 32.7964 30858.2856 -302.0052 -253.3479
ENERGY: 900000 1.1967 15.1844 5.9285 0.0000 -10798.7396 1450.6286 0.0000 0.0000 1734.6213 -7591.1800 292.3802 -9325.8013 -7500.0955 297.8046 118.1461 158.9281 30242.8274 -163.5861 -105.6216
ENERGY: 1200000 3.7421 11.0380 4.4038 0.0000 -10730.7843 1387.8326 0.0000 0.0000 1685.1458 -7638.6220 284.0408 -9323.7678 -7512.9148 297.4060 -660.4451 -615.6226 30463.5540 -182.6096 -132.5606
ENERGY: 1500000 4.2819 11.4653 4.3392 0.0000 -10802.6690 1436.7357 0.0000 0.0000 1799.1523 -7546.6945 303.2573 -9345.8468 -7510.7277 298.2085 -402.3730 -324.6015 30476.6449 -68.7222 -17.1468
TCL: Running FEP window  17: Lambda1 0.19999999999999968 Lambda2 0.1499999999999997 [dLambda -0.04999999999999999]
TCL: Setting parameter firsttimestep to 0
TCL: Setting parameter alchLambda to 0.19999999999999968
Info: NONBONDED TABLE R-SQUARED SPACING: 0.0625
Info: NONBONDED TABLE SIZE: 705 POINTS
TCL: Setting parameter alchLambda2 to 0.1499999999999997
Info: NONBONDED TABLE R-SQUARED SPACING: 0.0625
Info: NONBONDED TABLE SIZE: 705 POINTS
TCL: Running for 1500000 steps
ETITLE: TS BOND ANGLE DIHED IMPRP ELECT VDW BOUNDARY MISC KINETIC TOTAL TEMP POTENTIAL TOTALAVG TEMPAVG PRESSURE GPRESSURE VOLUME PRESSAVG GPRESSAVG
ENERGY: 0 4.2819 11.4653 4.3392 0.0000 -10802.6681 1437.0049 0.0000 0.0000 1798.2450 -7547.3318 303.1044 -9345.5768 -7547.3318 303.1044 -415.3860 -326.3396 30476.6449 -415.3860 -326.3396
ENERGY: 300000 3.3441 12.2542 6.9068 0.0000 -10869.7802 1523.2731 0.0000 0.0000 1763.1705 -7560.8315 297.1924 -9324.0020 -7561.2518 295.0602 340.0611 444.7689 30809.5541 247.2010 308.0975
ENERGY: 600000 1.0233 10.0984 5.4231 0.0000 -10715.0428 1433.0695 0.0000 0.0000 1808.3797 -7457.0488 304.8126 -9265.4285 -7536.1988 298.5847 180.6164 270.2680 29823.3596 209.2606 273.6118
ENERGY: 900000 0.7548 10.9199 3.7698 0.0000 -10803.5573 1462.1808 0.0000 0.0000 1758.8628 -7567.0692 296.4663 -9325.9320 -7526.4511 298.8470 -305.0417 -234.6736 31085.7385 147.4741 221.4365
ENERGY: 1200000 1.5679 11.8554 7.2498 0.0000 -10836.0146 1488.9741 0.0000 0.0000 1832.3822 -7493.9851 308.8584 -9326.3673 -7503.5018 300.7855 401.5294 390.7933 30320.6506 254.8701 311.8496
ENERGY: 1500000 1.8296 12.5988 6.3130 0.0000 -10660.2247 1405.1299 0.0000 0.0000 1793.9516 -7440.4019 302.3807 -9234.3535 -7494.6561 300.8473 59.4950 66.5043 30112.3590 218.6195 269.5953
TCL: Running FEP window  18: Lambda1 0.1499999999999997 Lambda2 0.09999999999999969 [dLambda -0.05 ]
TCL: Setting parameter firsttimestep to 0
TCL: Setting parameter alchLambda to 0.1499999999999997
Info: NONBONDED TABLE R-SQUARED SPACING: 0.0625
Info: NONBONDED TABLE SIZE: 705 POINTS
TCL: Setting parameter alchLambda2 to 0.09999999999999969
Info: NONBONDED TABLE R-SQUARED SPACING: 0.0625
Info: NONBONDED TABLE SIZE: 705 POINTS
TCL: Running for 1500000 steps
ETITLE: TS BOND ANGLE DIHED IMPRP ELECT VDW BOUNDARY MISC KINETIC TOTAL TEMP POTENTIAL TOTALAVG TEMPAVG PRESSURE GPRESSURE VOLUME PRESSAVG GPRESSAVG
ENERGY: 0 1.8296 12.5988 6.3130 0.0000 -10660.2254 1404.5090 0.0000 0.0000 1793.0493 -7441.9258 302.2286 -9234.9751 -7441.9258 302.2286 -36.9722 58.7192 30112.3590 -36.9722 58.7192
ENERGY: 300000 4.1056 8.4144 6.4757 0.0000 -10697.2909 1388.4980 0.0000 0.0000 1773.0573 -7516.7399 298.8588 -9289.7972 -7488.4033 301.3809 -527.1592 -525.1774 30339.7991 -568.4368 -494.0928
ENERGY: 600000 2.8979 13.2737 4.9526 0.0000 -10636.0626 1407.4148 0.0000 0.0000 1754.7311 -7452.7925 295.7698 -9207.5236 -7472.2450 301.1509 -463.7864 -410.8713 31009.1352 -339.5662 -276.5152
ENERGY: 900000 2.7596 11.1566 6.7430 0.0000 -10826.8238 1476.5458 0.0000 0.0000 1780.8142 -7548.8047 300.1663 -9329.6188 -7483.6194 300.3924 285.6754 365.0893 29849.3978 -240.7983 -185.2966
ENERGY: 1200000 1.3431 12.1840 6.4033 0.0000 -10740.6914 1404.0525 0.0000 0.0000 1813.0051 -7503.7034 305.5922 -9316.7085 -7487.9046 300.9236 -250.5552 -211.4885 30246.3907 -209.4292 -151.2772
ENERGY: 1500000 3.2418 18.0260 5.3216 0.0000 -10820.2471 1482.5020 0.0000 0.0000 1821.5849 -7489.5709 307.0384 -9311.1558 -7488.4569 301.2879 362.6170 367.7574 30361.3034 -117.4053 -65.2499
TCL: Running FEP window  19: Lambda1 0.09999999999999969 Lambda2 0.049999999999999684 [dLambda -0.05 ]
TCL: Setting parameter firsttimestep to 0
TCL: Setting parameter alchLambda to 0.09999999999999969
Info: NONBONDED TABLE R-SQUARED SPACING: 0.0625
Info: NONBONDED TABLE SIZE: 705 POINTS
TCL: Setting parameter alchLambda2 to 0.049999999999999684
Info: NONBONDED TABLE R-SQUARED SPACING: 0.0625
Info: NONBONDED TABLE SIZE: 705 POINTS
TCL: Running for 1500000 steps
ETITLE: TS BOND ANGLE DIHED IMPRP ELECT VDW BOUNDARY MISC KINETIC TOTAL TEMP POTENTIAL TOTALAVG TEMPAVG PRESSURE GPRESSURE VOLUME PRESSAVG GPRESSAVG
ENERGY: 0 3.2418 18.0260 5.3216 0.0000 -10820.2473 1482.1772 0.0000 0.0000 1820.7144 -7490.7664 306.8917 -9311.4808 -7490.7664 306.8917 289.6832 362.4531 30361.3034 289.6832 362.4531
ENERGY: 300000 1.2728 12.9211 5.5493 0.0000 -10963.5558 1578.4743 0.0000 0.0000 1736.7592 -7628.5791 292.7406 -9365.3383 -7554.5130 298.2341 815.2114 841.8003 30325.0867 140.2887 202.0147
ENERGY: 600000 1.2515 11.0881 3.9629 0.0000 -10803.0064 1504.4846 0.0000 0.0000 1776.4786 -7505.7406 299.4355 -9282.2192 -7527.4378 298.5390 283.8978 301.6665 30938.8295 145.4894 197.0829
ENERGY: 900000 0.8096 13.7262 6.8446 0.0000 -10561.2100 1349.4794 0.0000 0.0000 1741.2606 -7449.0895 293.4993 -9190.3502 -7519.3538 297.4957 -807.1683 -742.3142 30770.4166 32.0346 90.1062
ENERGY: 1200000 3.1550 15.5832 3.7264 0.0000 -10834.2273 1532.3493 0.0000 0.0000 1694.3957 -7585.0178 285.6000 -9279.4135 -7519.2600 296.8037 429.6664 465.9032 30382.9569 28.8707 81.0736
ENERGY: 1500000 2.7202 10.0769 4.7477 0.0000 -10868.9844 1516.8325 0.0000 0.0000 1779.6985 -7554.9087 299.9782 -9334.6071 -7519.5571 297.6670 685.3292 680.1754 30094.2281 47.5901 97.4745
TCL: Running FEP window  20: Lambda1 0.049999999999999684 Lambda2 0.0    [dLambda -0.049999999999999684]
TCL: Setting parameter firsttimestep to 0
TCL: Setting parameter alchLambda to 0.049999999999999684
Info: NONBONDED TABLE R-SQUARED SPACING: 0.0625
Info: NONBONDED TABLE SIZE: 705 POINTS
TCL: Setting parameter alchLambda2 to 0.0
Info: NONBONDED TABLE R-SQUARED SPACING: 0.0625
Info: NONBONDED TABLE SIZE: 705 POINTS
TCL: Running for 1500000 steps
ETITLE: TS BOND ANGLE DIHED IMPRP ELECT VDW BOUNDARY MISC KINETIC TOTAL TEMP POTENTIAL TOTALAVG TEMPAVG PRESSURE GPRESSURE VOLUME PRESSAVG GPRESSAVG
ENERGY: 0 2.7202 10.0769 4.7477 0.0000 -10868.9831 1516.6163 0.0000 0.0000 1778.8129 -7556.0091 299.8290 -9334.8221 -7556.0091 299.8290 608.1494 678.2666 30094.2281 608.1494 678.2666
ENERGY: 300000 2.0135 16.6254 4.9339 0.0000 -10733.4045 1461.1914 0.0000 0.0000 1776.4959 -7472.1443 299.4384 -9248.6403 -7515.5793 299.2094 -30.4512 65.4220 30527.6323 -74.8717 -2.0988
ENERGY: 600000 2.5090 14.2718 5.6159 0.0000 -10795.0520 1481.1020 0.0000 0.0000 1812.9148 -7478.6386 305.5770 -9291.5533 -7502.5284 299.6657 158.6874 271.2646 30836.7872 -123.4222 -37.6230
ENERGY: 900000 1.9160 9.9195 5.1884 0.0000 -10714.9438 1439.3390 0.0000 0.0000 1784.7297 -7473.8513 300.8263 -9258.5809 -7491.6135 299.6355 -168.6718 -117.2436 30626.3616 -114.7558 -24.2809
ENERGY: 1200000 2.3864 8.9922 4.7375 0.0000 -10645.2426 1418.4186 0.0000 0.0000 1726.1572 -7484.5507 290.9536 -9210.7079 -7496.2320 299.4628 -121.8489 -165.4191 30669.3416 -60.1874 11.7542
ENERGY: 1500000 5.1645 15.2654 5.7561 0.0000 -10574.3255 1344.3425 0.0000 0.0000 1784.4244 -7419.3726 300.7748 -9203.7970 -7485.3866 299.5397 -746.7880 -674.4578 30301.9095 -90.5293 -22.2441
TCL: Exiting due to exit command.
