Info: SIMULATION PARAMETERS:
Info: TIMESTEP               2
Info: NUMBER OF STEPS        0
Info: STEPS PER CYCLE        10
Info: PERIODIC CELL BASIS 1  30.6871 0 0
Info: PERIODIC CELL BASIS 2  0 30.0906 0
Info: PERIODIC CELL BASIS 3  0 0 33.7651
Info: PERIODIC CELL CENTER   0 0 0
Info: WRAPPING WATERS AROUND PERIODIC BOUNDARIES ON OUTPUT.
Info: WRAPPING ALL CLUSTERS AROUND PERIODIC BOUNDARIES ON OUTPUT.
Info: FIRST LDB TIMESTEP     50
Info: LAST LDB TIMESTEP     -1
Info: HOM BACKGROUND SCALING 1
Info: PME BACKGROUND SCALING 1
Info: MIN ATOMS PER PATCH    40
Info: EMPTY PATCH LOAD       40 ATOMS
Info: VELOCITY FILE          mobley_2328633_equil.vel
Info: CENTER OF MASS MOVING INITIALLY? NO
Info: DIELECTRIC             1
Info: EXCLUDE                SCALED ONE-FOUR
Info: 1-4 ELECTROSTATICS SCALED BY 0.833333
Info: MODIFIED 1-4 VDW PARAMETERS WILL BE USED
Info: DCD FILENAME           mobley_2328633_prod.dcd
Info: DCD FREQUENCY          100000
Info: DCD FIRST STEP         100000
Info: DCD FILE WILL CONTAIN UNIT CELL DATA
Info: XST FILENAME           mobley_2328633_prod.xst
Info: XST FREQUENCY          100000
Info: NO VELOCITY DCD OUTPUT
Info: NO FORCE DCD OUTPUT
Info: OUTPUT FILENAME        mobley_2328633_prod
Info: BINARY OUTPUT FILES WILL BE USED
Info: RESTART FILENAME       mobley_2328633_prod.restart
Info: RESTART FREQUENCY      100000
Info: BINARY RESTART FILES WILL BE USED
Info: CUTOFF                 9
Info: PAIRLIST DISTANCE      11
Info: PAIRLIST SHRINK RATE   0.01
Info: PAIRLIST GROW RATE     0.01
Info: PAIRLIST TRIGGER       0.3
Info: PAIRLISTS PER CYCLE    2
Info: PAIRLISTS ENABLED
Info: MARGIN                 2
Info: HYDROGEN GROUP CUTOFF  2.5
Info: PATCH DIMENSION        15.5
Info: ENERGY OUTPUT STEPS    100000
Info: ENERGY EVALUATION STEPS    100000
Info: OUTPUT ENERGY PRECISION 4
Info: CROSSTERM ENERGY INCLUDED IN DIHEDRAL
Info: TIMING OUTPUT STEPS    1000000
Info: PRESSURE OUTPUT STEPS  100000
Info: ALCHEMICAL FEP ON
Info: FEP CURRENT LAMBDA VALUE     0
Info: FEP COMPARISON LAMBDA VALUE  0.05
Info: FEP INTRA-ALCHEMICAL NON-BONDED INTERACTIONS WILL BE RETAINED
Info: FEP INTRA-ALCHEMICAL BONDED INTERACTIONS WILL BE RETAINED
Info: FEP VDW SHIFTING COEFFICIENT 5
Info: FEP ELEC. ACTIVE FOR ANNIHILATED PARTICLES BETWEEN LAMBDA = 0 AND LAMBDA = 0.5
Info: FEP ELEC. ACTIVE FOR EXNIHILATED PARTICLES BETWEEN LAMBDA = 0.5 AND LAMBDA = 1
Info: FEP VDW ACTIVE FOR ANNIHILATED PARTICLES BETWEEN LAMBDA = 0 AND LAMBDA = 1
Info: FEP VDW ACTIVE FOR EXNIHILATED PARTICLES BETWEEN LAMBDA = 0 AND LAMBDA = 1
Info: FEP BOND ACTIVE FOR ANNIHILATED PARTICLES BETWEEN LAMBDA = 1 AND LAMBDA = 1
Info: FEP BOND ACTIVE FOR EXNIHILATED PARTICLES BETWEEN LAMBDA = 0 AND LAMBDA = 0
Info: LANGEVIN DYNAMICS ACTIVE
Info: LANGEVIN TEMPERATURE   300
Info: LANGEVIN USING BBK INTEGRATOR
Info: LANGEVIN DAMPING COEFFICIENT IS 1 INVERSE PS
Info: LANGEVIN DYNAMICS APPLIED TO HYDROGENS
Info: LANGEVIN PISTON PRESSURE CONTROL ACTIVE
Info:        TARGET PRESSURE IS 1.01325 BAR
Info:     OSCILLATION PERIOD IS 50 FS
Info:             DECAY TIME IS 25 FS
Info:     PISTON TEMPERATURE IS 300 K
Info:       PRESSURE CONTROL IS GROUP-BASED
Info:    INITIAL STRAIN RATE IS 8.58354e-05 8.58354e-05 8.58354e-05
Info:       CELL FLUCTUATION IS ISOTROPIC
Info: PARTICLE MESH EWALD (PME) ACTIVE
Info: PME TOLERANCE               1e-06
Info: PME EWALD COEFFICIENT       0.348832
Info: PME INTERPOLATION ORDER     4
Info: PME GRID DIMENSIONS         32 32 36
Info: PME MAXIMUM GRID SPACING    1
Info: PME CALCULATION WILL BE PERFORMED ON GPU
Info: FULL ELECTROSTATIC EVALUATION FREQUENCY      2
Info: USING VERLET I (r-RESPA) MTS SCHEME.
Info: C1 SPLITTING OF LONG RANGE ELECTROSTATICS
Info: PLACING ATOMS IN PATCHES BY HYDROGEN GROUPS
Info: RIGID BONDS TO HYDROGEN : ALL
Info:         ERROR TOLERANCE : 1e-08
Info:          MAX ITERATIONS : 100
Info: RIGID WATER USING SETTLE ALGORITHM
Info: RANDOM NUMBER SEED     1743996832
Info: USE HYDROGEN BONDS?    NO
Info: Using AMBER format force field!
Info: AMBER PARM FILE        mobley_2328633.prmtop
Info: COORDINATE PDB         mobley_2328633.pdb
Info: Exclusions will be read from PARM file!
Info: SCNB (VDW SCALING)     2
Info: USING ARITHMETIC MEAN TO COMBINE L-J SIGMA PARAMETERS
Info: BINARY COORDINATES     mobley_2328633_equil.coor
Info: SUMMARY OF PARAMETERS:
Info: 4 BONDS
Info: 3 ANGLES
Info:   3 HARMONIC
Info:   0 COSINE-BASED
Info: 5 DIHEDRAL
Info: 0 IMPROPER
Info: 0 CROSSTERM
Info: 0 VDW
Info: 10 VDW_PAIRS
Info: 0 NBTHOLE_PAIRS
Info: To read alchdata from file: mobley_2328633.pdb
Info: To read alchflag data from column: 5
Info: STRUCTURE SUMMARY:
Info: 2964 ATOMS
Info: 2964 BONDS
Info: 60 ANGLES
Info: 114 DIHEDRALS
Info: 0 IMPROPERS
Info: 0 CROSSTERMS
Info: 3109 EXCLUSIONS
Info: 2954 RIGID BONDS
Info: ALCH: 0 ATOMS TO DISAPPEAR IN FINAL STATE
Info: ALCH: 30 ATOMS TO APPEAR IN FINAL STATE
Info: 5938 DEGREES OF FREEDOM
Info: 988 HYDROGEN GROUPS
Info: 4 ATOMS IN LARGEST HYDROGEN GROUP
Info: 988 MIGRATION GROUPS
Info: 4 ATOMS IN LARGEST MIGRATION GROUP
Info: TOTAL MASS = 17759.9 amu
Info: TOTAL CHARGE = -9.99831e-05 e
Info: MASS DENSITY = 0.9459 g/cm^3
Info: ATOM DENSITY = 0.0950656 atoms/A^3
Info: ADDED 0 IMPLICIT EXCLUSIONS
Info: NONBONDED TABLE R-SQUARED SPACING: 0.0625
Info: NONBONDED TABLE SIZE: 705 POINTS
Info: REMOVING COM VELOCITY -0.20201 -0.174472 0.21886
Info: Use 3D box decompostion in PME FFT.
Info: Updated CUDA force table with 4096 elements.
Info: Updated CUDA LJ table with 4 x 4 elements.
Info: Found 33 unique exclusion lists needing 136 bytes
TCL: Running for 1500000 steps
ETITLE: TS BOND ANGLE DIHED IMPRP ELECT VDW BOUNDARY MISC KINETIC TOTAL TEMP POTENTIAL TOTALAVG TEMPAVG PRESSURE GPRESSURE VOLUME PRESSAVG GPRESSAVG
ENERGY: 0 2.2269 13.5497 12.3128 0.0000 -10480.8511 1405.0726 0.0000 0.0000 1761.1383 -7286.5509 298.4995 -9047.6892 -7286.5509 298.4995 -363.9489 -283.9156 31178.4614 -363.9489 -283.9156
ENERGY: 300000 4.5807 17.3158 10.8874 0.0000 -10773.1886 1493.2021 0.0000 0.0000 1789.4348 -7457.7677 303.2956 -9247.2025 -7360.7226 305.2208 456.6508 482.0904 29985.1543 -67.6754 9.1498
ENERGY: 600000 5.2555 21.4008 12.3382 0.0000 -10693.6457 1407.3506 0.0000 0.0000 1715.1502 -7532.1505 290.7049 -9247.3007 -7398.9246 302.4191 -616.0114 -478.9503 30363.4684 -87.9434 -11.6836
ENERGY: 900000 1.3141 17.3327 13.7662 0.0000 -10775.1220 1482.1924 0.0000 0.0000 1716.2256 -7544.2910 290.8872 -9260.5166 -7421.4786 299.9395 251.4907 331.8507 30037.1753 16.8589 83.1592
ENERGY: 1200000 2.0900 12.4977 15.2931 0.0000 -10577.5033 1421.3563 0.0000 0.0000 1754.9254 -7371.3409 297.4465 -9126.2663 -7423.3659 299.0405 245.0526 297.2877 30120.4910 -42.4454 16.0555
ENERGY: 1500000 1.6723 24.2108 12.1360 0.0000 -10778.5650 1508.9135 0.0000 0.0000 1764.6182 -7467.0142 299.0893 -9231.6323 -7430.5648 298.2129 439.4006 503.7547 30202.8159 -56.4447 1.9893
TCL: Running FEP window   2: Lambda1 0.05   Lambda2 0.1    [dLambda 0.05  ]
TCL: Setting parameter firsttimestep to 0
TCL: Setting parameter alchLambda to 0.05
Info: NONBONDED TABLE R-SQUARED SPACING: 0.0625
Info: NONBONDED TABLE SIZE: 705 POINTS
TCL: Setting parameter alchLambda2 to 0.1
Info: NONBONDED TABLE R-SQUARED SPACING: 0.0625
Info: NONBONDED TABLE SIZE: 705 POINTS
TCL: Running for 1500000 steps
ETITLE: TS BOND ANGLE DIHED IMPRP ELECT VDW BOUNDARY MISC KINETIC TOTAL TEMP POTENTIAL TOTALAVG TEMPAVG PRESSURE GPRESSURE VOLUME PRESSAVG GPRESSAVG
ENERGY: 0 1.6723 24.2108 12.1360 0.0000 -10778.5642 1514.9359 0.0000 0.0000 1763.6839 -7461.9253 298.9310 -9225.6092 -7461.9253 298.9310 437.4429 513.9281 30202.8159 437.4429 513.9281
ENERGY: 300000 2.2435 18.1474 14.5099 0.0000 -10568.9802 1357.6334 0.0000 0.0000 1791.2291 -7385.2169 303.5997 -9176.4459 -7420.4092 300.3860 -444.1002 -427.4116 30235.7701 106.4935 152.9746
ENERGY: 600000 1.8660 19.1939 12.7102 0.0000 -10529.8133 1351.9799 0.0000 0.0000 1779.8549 -7364.2085 301.6718 -9144.0634 -7391.7574 302.5023 -716.3238 -597.7838 30333.2517 -59.7449 18.6592
ENERGY: 900000 4.3886 20.9391 12.2511 0.0000 -10561.4181 1398.6412 0.0000 0.0000 1798.0943 -7327.1038 304.7633 -9125.1982 -7386.9807 303.1976 -353.0755 -305.5682 30630.1201 -171.9758 -96.9371
ENERGY: 1200000 4.6354 14.1709 14.7796 0.0000 -10721.0451 1465.1177 0.0000 0.0000 1735.8682 -7486.4733 294.2164 -9222.3415 -7394.9264 302.8519 381.5170 464.0052 29799.9427 -132.6183 -64.8292
ENERGY: 1500000 4.4761 21.9470 17.3597 0.0000 -10731.5267 1486.3000 0.0000 0.0000 1784.0157 -7417.4282 302.3771 -9201.4439 -7400.8064 302.4774 216.3992 331.1578 30296.7962 -144.7785 -70.7624
TCL: Running FEP window   3: Lambda1 0.1    Lambda2 0.15000000000000002 [dLambda 0.05000000000000002]
TCL: Setting parameter firsttimestep to 0
TCL: Setting parameter alchLambda to 0.1
Info: NONBONDED TABLE R-SQUARED SPACING: 0.0625
Info: NONBONDED TABLE SIZE: 705 POINTS
TCL: Setting parameter alchLambda2 to 0.15000000000000002
Info: NONBONDED TABLE R-SQUARED SPACING: 0.0625
Info: NONBONDED TABLE SIZE: 705 POINTS
TCL: Running for 1500000 steps
ETITLE: TS BOND ANGLE DIHED IMPRP ELECT VDW BOUNDARY MISC KINETIC TOTAL TEMP POTENTIAL TOTALAVG TEMPAVG PRESSURE GPRESSURE VOLUME PRESSAVG GPRESSAVG
ENERGY: 0 4.4761 21.9470 17.3597 0.0000 -10731.5261 1489.4228 0.0000 0.0000 1783.1445 -7415.1761 302.2294 -9198.3206 -7415.1761 302.2294 257.4806 346.9008 30296.7962 257.4806 346.9008
ENERGY: 300000 1.4150 20.1742 11.6780 0.0000 -10671.2577 1481.9264 0.0000 0.0000 1745.9337 -7410.1305 295.9225 -9156.0641 -7412.0414 298.5601 344.2650 354.1137 30289.7576 208.3958 249.6560
ENERGY: 600000 1.2204 14.1036 13.0208 0.0000 -10627.8158 1369.6654 0.0000 0.0000 1769.3381 -7460.4676 299.8893 -9229.8057 -7418.7762 298.7009 -485.6271 -400.9225 30073.7098 64.7836 132.8993
ENERGY: 900000 3.1892 20.0262 12.7929 0.0000 -10836.7504 1571.8410 0.0000 0.0000 1824.0402 -7404.8609 309.1609 -9228.9011 -7425.7178 299.7534 1131.0441 1123.5787 30106.8270 327.5614 382.9817
ENERGY: 1200000 1.6354 22.2845 13.6893 0.0000 -10687.0336 1419.4637 0.0000 0.0000 1796.2534 -7433.7074 304.4513 -9229.9608 -7413.3205 301.3277 -311.8787 -233.3775 30279.9971 272.5326 331.4908
ENERGY: 1500000 3.8753 19.0104 12.9038 0.0000 -10670.5521 1459.8125 0.0000 0.0000 1840.9866 -7333.9635 312.0332 -9174.9501 -7407.7709 302.2867 219.2290 272.6637 30220.4210 177.7832 240.5656
TCL: Running FEP window   4: Lambda1 0.15000000000000002 Lambda2 0.2    [dLambda 0.04999999999999999]
TCL: Setting parameter firsttimestep to 0
TCL: Setting parameter alchLambda to 0.15000000000000002
Info: NONBONDED TABLE R-SQUARED SPACING: 0.0625
Info: NONBONDED TABLE SIZE: 705 POINTS
TCL: Setting parameter alchLambda2 to 0.2
Info: NONBONDED TABLE R-SQUARED SPACING: 0.0625
Info: NONBONDED TABLE SIZE: 705 POINTS
TCL: Running for 1500000 steps
ETITLE: TS BOND ANGLE DIHED IMPRP ELECT VDW BOUNDARY MISC KINETIC TOTAL TEMP POTENTIAL TOTALAVG TEMPAVG PRESSURE GPRESSURE VOLUME PRESSAVG GPRESSAVG
ENERGY: 0 3.8753 19.0104 12.9038 0.0000 -10670.5534 1460.5096 0.0000 0.0000 1840.0882 -7334.1660 311.8809 -9174.2542 -7334.1660 311.8809 208.6236 278.6848 30220.4210 208.6236 278.6848
ENERGY: 300000 3.6192 20.3531 12.3759 0.0000 -10712.6134 1430.2682 0.0000 0.0000 1807.5979 -7438.3991 306.3741 -9245.9970 -7402.1689 302.8325 -210.3795 -113.3689 30108.2340 185.0992 257.0846
ENERGY: 600000 3.4087 14.3731 13.9470 0.0000 -10565.6347 1387.7010 0.0000 0.0000 1844.1686 -7302.0363 312.5725 -9146.2049 -7397.2709 303.9756 -121.1387 -79.8564 30240.2825 103.9792 160.3503
ENERGY: 900000 0.8899 20.8039 12.0093 0.0000 -10680.5296 1430.3829 0.0000 0.0000 1769.9323 -7446.5113 299.9900 -9216.4436 -7408.1700 303.0713 -136.6557 -29.3908 30282.7886 -4.9421 44.9662
ENERGY: 1200000 2.4034 25.5051 12.3256 0.0000 -10751.1882 1522.5777 0.0000 0.0000 1797.3056 -7391.0708 304.6296 -9188.3764 -7411.7420 302.8921 669.7608 717.6715 30389.3954 125.8717 177.3303
ENERGY: 1500000 4.3504 19.6013 17.2259 0.0000 -10687.0222 1495.9328 0.0000 0.0000 1729.8778 -7420.0341 293.2011 -9149.9118 -7419.4935 301.8691 479.0399 509.0483 30421.2526 120.2987 172.7180
TCL: Running FEP window   5: Lambda1 0.2    Lambda2 0.25   [dLambda 0.04999999999999999]
TCL: Setting parameter firsttimestep to 0
TCL: Setting parameter alchLambda to 0.2
Info: NONBONDED TABLE R-SQUARED SPACING: 0.0625
Info: NONBONDED TABLE SIZE: 705 POINTS
TCL: Setting parameter alchLambda2 to 0.25
Info: NONBONDED TABLE R-SQUARED SPACING: 0.0625
Info: NONBONDED TABLE SIZE: 705 POINTS
TCL: Running for 1500000 steps
ETITLE: TS BOND ANGLE DIHED IMPRP ELECT VDW BOUNDARY MISC KINETIC TOTAL TEMP POTENTIAL TOTALAVG TEMPAVG PRESSURE GPRESSURE VOLUME PRESSAVG GPRESSAVG
ENERGY: 0 4.3504 19.6014 17.2259 0.0000 -10687.0235 1497.4012 0.0000 0.0000 1729.0138 -7419.4309 293.0547 -9148.4447 -7419.4309 293.0547 443.8289 518.7481 30421.2526 443.8289 518.7481
ENERGY: 300000 6.5755 21.9896 12.1640 0.0000 -10710.0465 1432.3152 0.0000 0.0000 1786.0961 -7450.9060 302.7297 -9237.0021 -7419.4797 299.8282 -18.3032 15.3844 29963.9662 25.9583 86.9001
ENERGY: 600000 4.1868 18.6501 12.9411 0.0000 -10619.5177 1346.4120 0.0000 0.0000 1777.4848 -7459.8427 301.2701 -9237.3275 -7429.7025 298.8202 -909.9802 -833.8594 30198.3520 -144.7442 -79.0114
ENERGY: 900000 2.9245 20.6297 11.5857 0.0000 -10752.6080 1524.8256 0.0000 0.0000 1747.0707 -7445.5719 296.1152 -9192.6426 -7422.4627 299.2651 600.6479 665.5496 30385.9119 -12.0949 48.3057
ENERGY: 1200000 0.4306 13.3750 15.1771 0.0000 -10796.9657 1542.8523 0.0000 0.0000 1796.8879 -7428.2428 304.5588 -9225.1308 -7428.0244 300.0967 1016.8786 1075.6902 29879.0307 51.1488 110.0739
ENERGY: 1500000 4.0122 21.1068 12.0416 0.0000 -10701.3804 1409.3650 0.0000 0.0000 1811.3189 -7443.5359 307.0048 -9254.8548 -7425.5518 300.2181 -771.1870 -655.8680 30766.2198 -57.1976 1.7349
TCL: Running FEP window   6: Lambda1 0.25   Lambda2 0.3    [dLambda 0.04999999999999999]
TCL: Setting parameter firsttimestep to 0
TCL: Setting parameter alchLambda to 0.25
Info: NONBONDED TABLE R-SQUARED SPACING: 0.0625
Info: NONBONDED TABLE SIZE: 705 POINTS
TCL: Setting parameter alchLambda2 to 0.3
Info: NONBONDED TABLE R-SQUARED SPACING: 0.0625
Info: NONBONDED TABLE SIZE: 705 POINTS
TCL: Running for 1500000 steps
ETITLE: TS BOND ANGLE DIHED IMPRP ELECT VDW BOUNDARY MISC KINETIC TOTAL TEMP POTENTIAL TOTALAVG TEMPAVG PRESSURE GPRESSURE VOLUME PRESSAVG GPRESSAVG
ENERGY: 0 4.0122 21.1068 12.0416 0.0000 -10701.3797 1410.7748 0.0000 0.0000 1810.4768 -7442.9674 306.8620 -9253.4442 -7442.9674 306.8620 -721.2977 -639.3941 30766.2198 -721.2977 -639.3941
ENERGY: 300000 1.1463 23.3043 16.3365 0.0000 -10866.9850 1541.4711 0.0000 0.0000 1742.1533 -7542.5737 295.2817 -9284.7270 -7491.0153 298.9318 663.5704 706.1505 30206.0454 -61.3478 10.3170
ENERGY: 600000 0.8115 18.4023 12.1588 0.0000 -10598.9621 1452.4907 0.0000 0.0000 1793.1888 -7321.9101 303.9318 -9115.0989 -7446.8955 300.7037 246.2219 292.8787 30900.6437 -26.9920 34.1079
ENERGY: 900000 3.8356 20.2251 14.3142 0.0000 -10764.1511 1498.0351 0.0000 0.0000 1736.7459 -7490.9953 294.3652 -9227.7412 -7440.1864 300.6924 156.2028 263.1717 30490.3120 -37.0857 23.5779
ENERGY: 1200000 2.7747 16.4200 15.1138 0.0000 -10564.3274 1316.9442 0.0000 0.0000 1811.8209 -7401.2540 307.0898 -9213.0748 -7439.3603 301.6348 -936.9550 -883.6310 30152.3457 -97.7100 -37.1868
ENERGY: 1500000 2.3745 16.7586 13.5112 0.0000 -10787.4207 1487.8930 0.0000 0.0000 1808.9069 -7457.9765 306.5959 -9266.8834 -7437.2464 302.5327 651.5719 633.2111 29730.5030 -38.3986 19.1475
TCL: Running FEP window   7: Lambda1 0.3    Lambda2 0.35   [dLambda 0.04999999999999999]
TCL: Setting parameter firsttimestep to 0
TCL: Setting parameter alchLambda to 0.3
Info: NONBONDED TABLE R-SQUARED SPACING: 0.0625
Info: NONBONDED TABLE SIZE: 705 POINTS
TCL: Setting parameter alchLambda2 to 0.35
Info: NONBONDED TABLE R-SQUARED SPACING: 0.0625
Info: NONBONDED TABLE SIZE: 705 POINTS
TCL: Running for 1500000 steps
ETITLE: TS BOND ANGLE DIHED IMPRP ELECT VDW BOUNDARY MISC KINETIC TOTAL TEMP POTENTIAL TOTALAVG TEMPAVG PRESSURE GPRESSURE VOLUME PRESSAVG GPRESSAVG
ENERGY: 0 2.3745 16.7586 13.5112 0.0000 -10787.4202 1488.2340 0.0000 0.0000 1808.0339 -7458.5081 306.4480 -9266.5420 -7458.5081 306.4480 565.8774 645.9119 29730.5030 565.8774 645.9119
ENERGY: 300000 2.7787 18.9792 12.3871 0.0000 -10624.5788 1396.2952 0.0000 0.0000 1745.2694 -7448.8692 295.8099 -9194.1386 -7468.0262 298.1506 -327.9123 -282.5490 30530.1494 -293.9196 -212.4859
ENERGY: 600000 2.8333 20.9610 12.9978 0.0000 -10716.4933 1404.1509 0.0000 0.0000 1751.0686 -7524.4816 296.7928 -9275.5502 -7473.7330 298.4795 -659.6309 -651.9601 30586.3835 -289.0264 -226.0575
ENERGY: 900000 1.9889 22.3395 13.5069 0.0000 -10599.1051 1397.6538 0.0000 0.0000 1776.8228 -7386.7931 301.1579 -9163.6160 -7452.6820 300.3390 -239.9218 -135.4066 30445.4829 -190.9489 -121.0772
ENERGY: 1200000 7.2402 18.8310 15.9812 0.0000 -10798.7184 1530.7049 0.0000 0.0000 1794.6183 -7431.3428 304.1741 -9225.9611 -7451.6213 300.0010 574.3500 614.9466 30046.2004 -52.7613 5.7207
ENERGY: 1500000 3.2971 20.0332 14.1971 0.0000 -10693.5285 1493.3604 0.0000 0.0000 1716.7927 -7445.8481 290.9833 -9162.6408 -7447.7786 299.2885 450.7833 488.7804 30201.2229 -22.4229 37.3306
TCL: Running FEP window   8: Lambda1 0.35   Lambda2 0.39999999999999997 [dLambda 0.04999999999999999]
TCL: Setting parameter firsttimestep to 0
TCL: Setting parameter alchLambda to 0.35
Info: NONBONDED TABLE R-SQUARED SPACING: 0.0625
Info: NONBONDED TABLE SIZE: 705 POINTS
TCL: Setting parameter alchLambda2 to 0.39999999999999997
Info: NONBONDED TABLE R-SQUARED SPACING: 0.0625
Info: NONBONDED TABLE SIZE: 705 POINTS
TCL: Running for 1500000 steps
ETITLE: TS BOND ANGLE DIHED IMPRP ELECT VDW BOUNDARY MISC KINETIC TOTAL TEMP POTENTIAL TOTALAVG TEMPAVG PRESSURE GPRESSURE VOLUME PRESSAVG GPRESSAVG
ENERGY: 0 3.2971 20.0332 14.1971 0.0000 -10693.5292 1493.3117 0.0000 0.0000 1715.9106 -7446.7796 290.8338 -9162.6901 -7446.7796 290.8338 414.7858 496.8185 30201.2229 414.7858 496.8185
ENERGY: 300000 4.6492 19.7725 13.0797 0.0000 -10750.2780 1498.3032 0.0000 0.0000 1786.5426 -7427.9308 302.8054 -9214.4734 -7437.6252 298.7644 651.7106 730.1563 30158.3366 -56.5619 24.4466
ENERGY: 600000 1.7494 19.3342 11.6944 0.0000 -10653.8293 1461.9379 0.0000 0.0000 1819.4963 -7339.6171 308.3908 -9159.1134 -7421.2381 301.1550 531.7695 562.5185 30443.8354 5.5432 77.9030
ENERGY: 900000 6.2248 15.3414 14.9761 0.0000 -10632.6656 1394.6692 0.0000 0.0000 1831.5437 -7369.9103 310.4327 -9201.4540 -7413.5429 302.0549 -351.6668 -311.8596 30502.4824 -69.4242 -1.0724
ENERGY: 1200000 7.0158 16.5321 15.0058 0.0000 -10608.2216 1365.7157 0.0000 0.0000 1784.6760 -7419.2763 302.4890 -9203.9523 -7422.3590 301.7001 -723.5072 -727.8725 30733.1057 -206.7019 -146.3245
ENERGY: 1500000 4.7048 21.7626 12.9903 0.0000 -10636.2593 1378.8865 0.0000 0.0000 1820.7947 -7397.1203 308.6108 -9217.9151 -7420.7159 302.0869 -441.3344 -337.8680 30109.4566 -219.7767 -153.8451
TCL: Running FEP window   9: Lambda1 0.39999999999999997 Lambda2 0.44999999999999996 [dLambda 0.04999999999999999]
TCL: Setting parameter firsttimestep to 0
TCL: Setting parameter alchLambda to 0.39999999999999997
Info: NONBONDED TABLE R-SQUARED SPACING: 0.0625
Info: NONBONDED TABLE SIZE: 705 POINTS
TCL: Setting parameter alchLambda2 to 0.44999999999999996
Info: NONBONDED TABLE R-SQUARED SPACING: 0.0625
Info: NONBONDED TABLE SIZE: 705 POINTS
TCL: Running for 1500000 steps
ETITLE: TS BOND ANGLE DIHED IMPRP ELECT VDW BOUNDARY MISC KINETIC TOTAL TEMP POTENTIAL TOTALAVG TEMPAVG PRESSURE GPRESSURE VOLUME PRESSAVG GPRESSAVG
ENERGY: 0 4.7049 21.7626 12.9903 0.0000 -10636.2584 1378.9787 0.0000 0.0000 1819.9379 -7397.8841 308.4656 -9217.8220 -7397.8841 308.4656 -422.2295 -328.3134 30109.4566 -422.2295 -328.3134
ENERGY: 300000 3.5116 19.1018 13.0663 0.0000 -10745.3329 1457.0317 0.0000 0.0000 1722.9660 -7529.6555 292.0296 -9252.6215 -7446.9765 300.8036 -289.3682 -245.5229 30860.4464 -156.8810 -109.3722
ENERGY: 600000 2.4946 20.0023 14.9158 0.0000 -10595.8447 1423.0270 0.0000 0.0000 1740.9300 -7394.4750 295.0744 -9135.4050 -7445.0089 299.3551 -163.1689 -101.6990 30716.2104 -192.4495 -142.8802
ENERGY: 900000 4.1056 18.9074 12.5443 0.0000 -10532.9909 1361.9405 0.0000 0.0000 1768.7597 -7366.7335 299.7913 -9135.4932 -7439.3576 299.5615 -1067.9701 -978.8543 31291.5257 -223.9521 -164.7600
ENERGY: 1200000 2.2429 19.3942 13.9510 0.0000 -10506.7393 1325.7527 0.0000 0.0000 1773.4271 -7371.9715 300.5824 -9145.3985 -7425.6077 299.8132 -966.1927 -924.7433 30957.7187 -302.5737 -246.4859
ENERGY: 1500000 1.9412 20.4005 18.0317 0.0000 -10653.2800 1418.8916 0.0000 0.0000 1737.9652 -7456.0497 294.5719 -9194.0149 -7434.3001 298.8776 -137.5283 -66.5183 30248.2600 -288.0348 -228.8910
TCL: Running FEP window  10: Lambda1 0.44999999999999996 Lambda2 0.49999999999999994 [dLambda 0.04999999999999999]
TCL: Setting parameter firsttimestep to 0
TCL: Setting parameter alchLambda to 0.44999999999999996
Info: NONBONDED TABLE R-SQUARED SPACING: 0.0625
Info: NONBONDED TABLE SIZE: 705 POINTS
TCL: Setting parameter alchLambda2 to 0.49999999999999994
Info: NONBONDED TABLE R-SQUARED SPACING: 0.0625
Info: NONBONDED TABLE SIZE: 705 POINTS
TCL: Running for 1500000 steps
ETITLE: TS BOND ANGLE DIHED IMPRP ELECT VDW BOUNDARY MISC KINETIC TOTAL TEMP POTENTIAL TOTALAVG TEMPAVG PRESSURE GPRESSURE VOLUME PRESSAVG GPRESSAVG
ENERGY: 0 1.9412 20.4005 18.0317 0.0000 -10653.2808 1419.3515 0.0000 0.0000 1737.0489 -7456.5070 294.4166 -9193.5558 -7456.5070 294.4166 -144.5815 -53.2488 30248.2600 -144.5815 -53.2488
ENERGY: 300000 4.7948 18.1931 14.3448 0.0000 -10636.7199 1458.1909 0.0000 0.0000 1761.7934 -7379.4030 298.6106 -9141.1964 -7434.5797 295.7300 151.7141 152.4330 30826.4073 -5.9588 58.4528
ENERGY: 600000 2.9232 19.4484 14.3591 0.0000 -10607.9449 1360.2013 0.0000 0.0000 1812.6764 -7398.3365 307.2348 -9211.0129 -7447.8792 297.3759 -711.9110 -704.3547 30806.8027 -210.6639 -151.1040
ENERGY: 900000 6.8512 12.9590 16.4038 0.0000 -10594.6556 1363.3939 0.0000 0.0000 1777.9775 -7417.0702 301.3536 -9195.0477 -7445.3361 298.1494 -443.7290 -398.1035 29980.4614 -121.4249 -72.9144
ENERGY: 1200000 7.6054 26.0613 12.4974 0.0000 -10645.9178 1425.8918 0.0000 0.0000 1794.1648 -7379.6969 304.0973 -9173.8618 -7437.0590 299.2372 2.9547 64.8063 30298.5465 -57.9495 -8.1236
ENERGY: 1500000 2.7014 16.2045 15.2935 0.0000 -10592.0987 1401.3500 0.0000 0.0000 1814.3513 -7342.1980 307.5187 -9156.5493 -7432.3335 300.2188 64.2007 124.6360 30146.0295 -1.0713 53.3418
TCL: Running FEP window  11: Lambda1 0.49999999999999994 Lambda2 0.5499999999999999 [dLambda 0.04999999999999999]
TCL: Setting parameter firsttimestep to 0
TCL: Setting parameter alchLambda to 0.49999999999999994
Info: NONBONDED TABLE R-SQUARED SPACING: 0.0625
Info: NONBONDED TABLE SIZE: 705 POINTS
TCL: Setting parameter alchLambda2 to 0.5499999999999999
Info: NONBONDED TABLE R-SQUARED SPACING: 0.0625
Info: NONBONDED TABLE SIZE: 705 POINTS
TCL: Running for 1500000 steps
ETITLE: TS BOND ANGLE DIHED IMPRP ELECT VDW BOUNDARY MISC KINETIC TOTAL TEMP POTENTIAL TOTALAVG TEMPAVG PRESSURE GPRESSURE VOLUME PRESSAVG GPRESSAVG
ENERGY: 0 2.7014 16.2045 15.2935 0.0000 -10592.0975 1401.2693 0.0000 0.0000 1813.4666 -7343.1623 307.3688 -9156.6289 -7343.1623 307.3688 60.9312 133.5180 30146.0295 60.9312 133.5180
ENERGY: 300000 3.6268 20.0998 13.1733 0.0000 -10807.6959 1511.5958 0.0000 0.0000 1750.6793 -7508.5209 296.7268 -9259.2002 -7403.9184 302.6199 77.4620 151.0223 30443.6864 94.6882 174.2087
ENERGY: 600000 1.5762 19.9825 13.2815 0.0000 -10557.2882 1402.3160 0.0000 0.0000 1838.3883 -7281.7438 311.5928 -9120.1321 -7386.2869 304.5777 -178.0362 -127.7102 30682.6417 6.5016 88.5315
ENERGY: 900000 5.6765 27.3829 12.9221 0.0000 -10754.0021 1440.7851 0.0000 0.0000 1761.3365 -7505.8989 298.5331 -9267.2354 -7391.3365 304.3040 -93.6476 -96.5206 30358.5968 -16.3829 54.7870
ENERGY: 1200000 3.3314 17.3520 13.6944 0.0000 -10487.3493 1330.1962 0.0000 0.0000 1765.1739 -7357.6014 299.1835 -9122.7753 -7384.4971 304.3746 -1092.0473 -957.7582 30944.2591 -165.3884 -87.5343
ENERGY: 1500000 5.1488 20.7131 17.3714 0.0000 -10693.3174 1399.3620 0.0000 0.0000 1719.5261 -7531.1962 291.4466 -9250.7222 -7402.4087 303.5181 -434.9219 -408.1914 30169.8829 -55.4042 21.5884
TCL: Running FEP window  12: Lambda1 0.5499999999999999 Lambda2 0.6    [dLambda 0.050000000000000044]
TCL: Setting parameter firsttimestep to 0
TCL: Setting parameter alchLambda to 0.5499999999999999
Info: NONBONDED TABLE R-SQUARED SPACING: 0.0625
Info: NONBONDED TABLE SIZE: 705 POINTS
TCL: Setting parameter alchLambda2 to 0.6
Info: NONBONDED TABLE R-SQUARED SPACING: 0.0625
Info: NONBONDED TABLE SIZE: 705 POINTS
TCL: Running for 1500000 steps
ETITLE: TS BOND ANGLE DIHED IMPRP ELECT VDW BOUNDARY MISC KINETIC TOTAL TEMP POTENTIAL TOTALAVG TEMPAVG PRESSURE GPRESSURE VOLUME PRESSAVG GPRESSAVG
ENERGY: 0 5.1488 20.7131 17.3714 0.0000 -10693.3342 1399.8043 0.0000 0.0000 1718.6721 -7531.6245 291.3018 -9250.2967 -7531.6245 291.3018 -474.2154 -394.7462 30169.8829 -474.2154 -394.7462
ENERGY: 300000 5.5665 18.8833 13.2965 0.0000 -10815.9815 1547.7676 0.0000 0.0000 1784.8907 -7445.5769 302.5254 -9230.4676 -7483.9362 297.4785 507.0999 594.2963 30436.3536 159.5241 204.2561
ENERGY: 600000 3.4395 24.8164 13.1745 0.0000 -10731.9300 1464.4323 0.0000 0.0000 1771.1311 -7454.9362 300.1932 -9226.0672 -7474.6509 300.0043 57.0495 143.0680 30534.7237 168.9555 232.3931
ENERGY: 900000 2.6417 20.7022 12.2138 0.0000 -10539.5249 1321.4219 0.0000 0.0000 1791.0713 -7391.4741 303.5729 -9182.5454 -7457.4762 300.9790 -1094.7392 -980.5861 30811.6720 -6.2179 55.0825
ENERGY: 1200000 1.9958 20.4616 15.1456 0.0000 -10787.6959 1514.3744 0.0000 0.0000 1774.6097 -7461.1089 300.7828 -9235.7186 -7451.6013 300.8911 655.1568 736.6975 30186.9350 5.5424 65.5932
ENERGY: 1500000 2.7149 18.1324 14.8698 0.0000 -10543.6846 1388.3100 0.0000 0.0000 1786.7800 -7332.8776 302.8456 -9119.6576 -7445.6697 300.8780 -345.7606 -276.0456 30750.8572 -17.2807 43.3058
TCL: Running FEP window  13: Lambda1 0.6    Lambda2 0.65   [dLambda 0.050000000000000044]
TCL: Setting parameter firsttimestep to 0
TCL: Setting parameter alchLambda to 0.6
Info: NONBONDED TABLE R-SQUARED SPACING: 0.0625
Info: NONBONDED TABLE SIZE: 705 POINTS
TCL: Setting parameter alchLambda2 to 0.65
Info: NONBONDED TABLE R-SQUARED SPACING: 0.0625
Info: NONBONDED TABLE SIZE: 705 POINTS
TCL: Running for 1500000 steps
ETITLE: TS BOND ANGLE DIHED IMPRP ELECT VDW BOUNDARY MISC KINETIC TOTAL TEMP POTENTIAL TOTALAVG TEMPAVG PRESSURE GPRESSURE VOLUME PRESSAVG GPRESSAVG
ENERGY: 0 2.7149 18.1324 14.8698 0.0000 -10543.6261 1387.5974 0.0000 0.0000 1785.9442 -7334.3675 302.7039 -9120.3117 -7334.3675 302.7039 -345.4226 -271.2724 30750.8572 -345.4226 -271.2724
ENERGY: 300000 4.2114 13.8731 14.1796 0.0000 -10659.3023 1430.7142 0.0000 0.0000 1763.2975 -7433.0266 298.8655 -9196.3241 -7419.9734 300.9580 156.6560 240.9621 30232.8679 -40.3493 32.7833
ENERGY: 600000 5.2784 20.9977 14.2960 0.0000 -10558.5323 1356.4553 0.0000 0.0000 1779.2636 -7382.2414 301.5716 -9161.5050 -7427.3951 300.1268 -729.5032 -693.7900 30909.5888 -268.6829 -208.3176
ENERGY: 900000 1.5500 19.0159 13.9863 0.0000 -10737.6027 1444.3082 0.0000 0.0000 1750.7961 -7507.9462 296.7466 -9258.7423 -7431.9432 300.6192 10.8484 46.4880 30424.4344 -298.5474 -235.0978
ENERGY: 1200000 2.7369 16.1502 13.0167 0.0000 -10640.0081 1502.9788 0.0000 0.0000 1722.5530 -7382.5725 291.9596 -9105.1255 -7429.1863 300.4550 597.2117 602.7633 30723.8228 -170.1790 -100.5417
ENERGY: 1500000 2.0469 21.6331 13.6253 0.0000 -10776.9213 1503.0483 0.0000 0.0000 1759.7645 -7476.8033 298.2667 -9236.5678 -7440.5641 299.5908 631.5703 665.8534 30126.5097 -97.3815 -32.6806
TCL: Running FEP window  14: Lambda1 0.65   Lambda2 0.7000000000000001 [dLambda 0.050000000000000044]
TCL: Setting parameter firsttimestep to 0
TCL: Setting parameter alchLambda to 0.65
Info: NONBONDED TABLE R-SQUARED SPACING: 0.0625
Info: NONBONDED TABLE SIZE: 705 POINTS
TCL: Setting parameter alchLambda2 to 0.7000000000000001
Info: NONBONDED TABLE R-SQUARED SPACING: 0.0625
Info: NONBONDED TABLE SIZE: 705 POINTS
TCL: Running for 1500000 steps
ETITLE: TS BOND ANGLE DIHED IMPRP ELECT VDW BOUNDARY MISC KINETIC TOTAL TEMP POTENTIAL TOTALAVG TEMPAVG PRESSURE GPRESSURE VOLUME PRESSAVG GPRESSAVG
ENERGY: 0 2.0469 21.6331 13.6253 0.0000 -10776.8374 1502.9907 0.0000 0.0000 1758.9000 -7477.6413 298.1202 -9236.5414 -7477.6413 298.1202 601.7909 678.0916 30126.5097 601.7909 678.0916
ENERGY: 300000 5.1162 16.7977 15.2525 0.0000 -10531.8626 1376.4938 0.0000 0.0000 1780.0011 -7338.2013 301.6966 -9118.2023 -7389.3702 301.4655 -289.3346 -160.3804 30998.2398 395.7740 484.2283
ENERGY: 600000 3.3027 20.9361 14.4470 0.0000 -10735.8165 1487.4270 0.0000 0.0000 1753.6485 -7456.0551 297.2301 -9209.7037 -7421.4170 299.0570 342.8342 396.5311 30461.9899 239.7759 310.9037
ENERGY: 900000 2.7539 20.3579 13.2034 0.0000 -10694.6356 1419.3077 0.0000 0.0000 1786.1027 -7452.9100 302.7308 -9239.0128 -7434.3535 299.3325 -453.8208 -376.0934 30535.1901 38.6572 103.0078
ENERGY: 1200000 1.4380 16.8872 13.9703 0.0000 -10650.8834 1401.0788 0.0000 0.0000 1798.2300 -7419.2792 304.7863 -9217.5091 -7430.9931 299.8452 -298.2701 -186.2900 30382.0779 41.1342 108.5752
ENERGY: 1500000 4.9035 25.9850 13.8355 0.0000 -10648.3580 1426.5109 0.0000 0.0000 1761.5803 -7415.5429 298.5744 -9177.1231 -7439.0927 299.2584 -156.4854 -53.2118 30211.5107 15.3437 87.5580
TCL: Running FEP window  15: Lambda1 0.7000000000000001 Lambda2 0.7500000000000001 [dLambda 0.050000000000000044]
TCL: Setting parameter firsttimestep to 0
TCL: Setting parameter alchLambda to 0.7000000000000001
Info: NONBONDED TABLE R-SQUARED SPACING: 0.0625
Info: NONBONDED TABLE SIZE: 705 POINTS
TCL: Setting parameter alchLambda2 to 0.7500000000000001
Info: NONBONDED TABLE R-SQUARED SPACING: 0.0625
Info: NONBONDED TABLE SIZE: 705 POINTS
TCL: Running for 1500000 steps
ETITLE: TS BOND ANGLE DIHED IMPRP ELECT VDW BOUNDARY MISC KINETIC TOTAL TEMP POTENTIAL TOTALAVG TEMPAVG PRESSURE GPRESSURE VOLUME PRESSAVG GPRESSAVG
ENERGY: 0 4.9035 25.9850 13.8355 0.0000 -10648.3917 1425.8828 0.0000 0.0000 1760.7016 -7417.0833 298.4255 -9177.7850 -7417.0833 298.4255 -141.1646 -46.8354 30211.5107 -141.1646 -46.8354
ENERGY: 300000 4.3391 17.3045 14.0946 0.0000 -10613.8336 1393.1687 0.0000 0.0000 1773.9764 -7410.9503 300.6755 -9184.9267 -7450.7238 296.3981 -75.4370 -18.2479 30346.2395 -244.6298 -164.5230
ENERGY: 600000 5.1224 18.2336 12.2221 0.0000 -10513.9622 1387.9368 0.0000 0.0000 1804.5379 -7285.9093 305.8554 -9090.4472 -7431.9252 298.6645 -265.1448 -217.3919 31108.7949 -302.1097 -233.1100
ENERGY: 900000 2.4397 21.8693 13.7261 0.0000 -10650.5230 1480.3079 0.0000 0.0000 1764.2582 -7367.9218 299.0283 -9132.1800 -7412.7660 300.3273 536.5742 579.5035 30468.9221 -114.8509 -52.7287
ENERGY: 1200000 7.2099 13.6867 17.8939 0.0000 -10615.9131 1420.9355 0.0000 0.0000 1781.7498 -7374.4372 301.9930 -9156.1870 -7423.1175 299.4913 -295.7250 -255.7731 30961.1439 -200.7395 -147.0300
ENERGY: 1500000 1.8924 17.8539 13.1359 0.0000 -10607.5082 1405.2798 0.0000 0.0000 1771.6976 -7397.6486 300.2893 -9169.3462 -7420.2564 300.2168 56.1235 99.7413 30353.0763 -213.3039 -156.4716
TCL: Running FEP window  16: Lambda1 0.7500000000000001 Lambda2 0.8000000000000002 [dLambda 0.050000000000000044]
TCL: Setting parameter firsttimestep to 0
TCL: Setting parameter alchLambda to 0.7500000000000001
Info: NONBONDED TABLE R-SQUARED SPACING: 0.0625
Info: NONBONDED TABLE SIZE: 705 POINTS
TCL: Setting parameter alchLambda2 to 0.8000000000000002
Info: NONBONDED TABLE R-SQUARED SPACING: 0.0625
Info: NONBONDED TABLE SIZE: 705 POINTS
TCL: Running for 1500000 steps
ETITLE: TS BOND ANGLE DIHED IMPRP ELECT VDW BOUNDARY MISC KINETIC TOTAL TEMP POTENTIAL TOTALAVG TEMPAVG PRESSURE GPRESSURE VOLUME PRESSAVG GPRESSAVG
ENERGY: 0 1.8924 17.8539 13.1359 0.0000 -10607.5043 1405.3134 0.0000 0.0000 1770.8092 -7398.4995 300.1387 -9169.3087 -7398.4995 300.1387 19.4741 111.4238 30353.0763 19.4741 111.4238
ENERGY: 300000 2.8374 19.4551 13.1601 0.0000 -10854.2361 1476.2982 0.0000 0.0000 1723.4428 -7619.0426 292.1104 -9342.4854 -7513.2761 296.7969 128.2112 124.8283 30134.8869 -2.8644 48.8548
ENERGY: 600000 4.8875 15.4597 13.8803 0.0000 -10801.3546 1519.0175 0.0000 0.0000 1790.1513 -7457.9583 303.4170 -9248.1096 -7493.9639 297.5850 774.4285 847.3387 29915.8302 -71.5750 -22.7521
ENERGY: 900000 0.8368 15.9781 12.2520 0.0000 -10719.6078 1444.1624 0.0000 0.0000 1773.8978 -7472.4807 300.6622 -9246.3786 -7483.3461 297.9754 123.6799 133.3878 30229.9570 15.4320 59.4665
ENERGY: 1200000 2.0271 18.8091 14.3665 0.0000 -10749.8695 1462.9073 0.0000 0.0000 1834.0760 -7417.6836 310.8619 -9251.7596 -7467.8489 300.0628 44.1636 80.0913 30703.4477 13.6721 58.2930
ENERGY: 1500000 2.4734 17.0451 15.9314 0.0000 -10705.4911 1482.4434 0.0000 0.0000 1786.4196 -7401.1782 302.7845 -9187.5979 -7466.5720 299.3072 509.1684 538.6024 30384.9597 -14.9001 28.2354
TCL: Running FEP window  17: Lambda1 0.8000000000000002 Lambda2 0.8500000000000002 [dLambda 0.050000000000000044]
TCL: Setting parameter firsttimestep to 0
TCL: Setting parameter alchLambda to 0.8000000000000002
Info: NONBONDED TABLE R-SQUARED SPACING: 0.0625
Info: NONBONDED TABLE SIZE: 705 POINTS
TCL: Setting parameter alchLambda2 to 0.8500000000000002
Info: NONBONDED TABLE R-SQUARED SPACING: 0.0625
Info: NONBONDED TABLE SIZE: 705 POINTS
TCL: Running for 1500000 steps
ETITLE: TS BOND ANGLE DIHED IMPRP ELECT VDW BOUNDARY MISC KINETIC TOTAL TEMP POTENTIAL TOTALAVG TEMPAVG PRESSURE GPRESSURE VOLUME PRESSAVG GPRESSAVG
ENERGY: 0 2.4734 17.0451 15.9314 0.0000 -10705.4551 1481.7712 0.0000 0.0000 1785.5494 -7402.6846 302.6370 -9188.2340 -7402.6846 302.6370 478.2714 544.6755 30384.9597 478.2714 544.6755
ENERGY: 300000 4.8679 15.5506 14.6583 0.0000 -10683.1638 1397.1600 0.0000 0.0000 1739.1805 -7511.7465 294.7779 -9250.9270 -7453.0305 299.9916 -292.3660 -213.0586 30439.3292 135.2149 192.6786
ENERGY: 600000 3.0547 18.4036 12.6982 0.0000 -10775.5631 1479.6019 0.0000 0.0000 1784.0892 -7477.7156 302.3895 -9261.8048 -7464.3392 298.7937 229.0152 328.7682 30617.7258 -69.4361 6.1339
ENERGY: 900000 2.4535 12.7380 15.5146 0.0000 -10656.4805 1438.7298 0.0000 0.0000 1723.8723 -7463.1723 292.1832 -9187.0446 -7463.9565 297.2545 -73.0575 -46.9081 30590.7469 -78.2405 -12.1526
ENERGY: 1200000 1.9701 21.2239 12.3895 0.0000 -10514.8900 1366.2706 0.0000 0.0000 1850.5488 -7262.4870 313.6539 -9113.0358 -7456.8158 297.8785 97.1652 129.2236 30103.0768 -79.1752 -19.4161
ENERGY: 1500000 0.8257 20.1811 13.1877 0.0000 -10638.8785 1389.7979 0.0000 0.0000 1761.8001 -7453.0860 298.6117 -9214.8861 -7452.7542 298.0845 -159.2391 -124.3196 30235.5657 -114.6064 -61.2253
TCL: Running FEP window  18: Lambda1 0.8500000000000002 Lambda2 0.9000000000000002 [dLambda 0.050000000000000044]
TCL: Setting parameter firsttimestep to 0
TCL: Setting parameter alchLambda to 0.8500000000000002
Info: NONBONDED TABLE R-SQUARED SPACING: 0.0625
Info: NONBONDED TABLE SIZE: 705 POINTS
TCL: Setting parameter alchLambda2 to 0.9000000000000002
Info: NONBONDED TABLE R-SQUARED SPACING: 0.0625
Info: NONBONDED TABLE SIZE: 705 POINTS
TCL: Running for 1500000 steps
ETITLE: TS BOND ANGLE DIHED IMPRP ELECT VDW BOUNDARY MISC KINETIC TOTAL TEMP POTENTIAL TOTALAVG TEMPAVG PRESSURE GPRESSURE VOLUME PRESSAVG GPRESSAVG
ENERGY: 0 0.8257 20.1811 13.1877 0.0000 -10638.8717 1389.2905 0.0000 0.0000 1760.9361 -7454.4505 298.4653 -9215.3867 -7454.4505 298.4653 -200.7597 -118.3573 30235.5657 -200.7597 -118.3573
ENERGY: 300000 4.1316 11.6413 15.5490 0.0000 -10675.4625 1446.4127 0.0000 0.0000 1836.5104 -7361.2175 311.2745 -9197.7279 -7405.0886 303.2777 -8.9811 86.6550 30533.4055 -60.1027 22.1503
ENERGY: 600000 1.8150 18.9124 15.9552 0.0000 -10738.0775 1484.4079 0.0000 0.0000 1760.0608 -7456.9263 298.3169 -9216.9871 -7428.8135 300.5801 491.9977 506.9408 30489.5966 98.7861 172.5627
ENERGY: 900000 3.6436 28.1997 12.4208 0.0000 -10778.2031 1493.5169 0.0000 0.0000 1700.3459 -7540.0761 288.1957 -9240.4220 -7455.6424 298.3517 432.0858 529.8123 30635.7068 149.8440 220.8547
ENERGY: 1200000 3.1739 15.5067 14.4989 0.0000 -10691.2653 1473.7895 0.0000 0.0000 1755.2953 -7429.0010 297.5092 -9184.2963 -7450.8062 298.5225 697.8117 778.6975 29954.1840 91.0065 164.3068
ENERGY: 1500000 2.4339 15.6913 15.4119 0.0000 -10554.4245 1327.2319 0.0000 0.0000 1763.8160 -7429.8395 298.9534 -9193.6555 -7439.8750 300.0008 -826.5201 -775.1299 30759.8167 50.4232 120.5015
TCL: Running FEP window  19: Lambda1 0.9000000000000002 Lambda2 0.9500000000000003 [dLambda 0.050000000000000044]
TCL: Setting parameter firsttimestep to 0
TCL: Setting parameter alchLambda to 0.9000000000000002
Info: NONBONDED TABLE R-SQUARED SPACING: 0.0625
Info: NONBONDED TABLE SIZE: 705 POINTS
TCL: Setting parameter alchLambda2 to 0.9500000000000003
Info: NONBONDED TABLE R-SQUARED SPACING: 0.0625
Info: NONBONDED TABLE SIZE: 705 POINTS
TCL: Running for 1500000 steps
ETITLE: TS BOND ANGLE DIHED IMPRP ELECT VDW BOUNDARY MISC KINETIC TOTAL TEMP POTENTIAL TOTALAVG TEMPAVG PRESSURE GPRESSURE VOLUME PRESSAVG GPRESSAVG
ENERGY: 0 2.4338 15.6913 15.4119 0.0000 -10554.4292 1327.0022 0.0000 0.0000 1762.9687 -7430.9212 298.8098 -9193.8900 -7430.9212 298.8098 -828.3982 -757.5618 30759.8167 -828.3982 -757.5618
ENERGY: 300000 2.6378 15.4648 15.6851 0.0000 -10745.9965 1439.2442 0.0000 0.0000 1803.5316 -7469.4331 305.6849 -9272.9647 -7447.7443 300.5246 259.1788 306.7553 30074.0624 -65.0125 13.3676
ENERGY: 600000 3.0054 17.2252 14.7131 0.0000 -10676.3840 1376.7780 0.0000 0.0000 1805.7248 -7458.9374 306.0566 -9264.6622 -7466.6211 301.7210 -639.2525 -552.8823 30416.5833 -43.7545 42.8928
ENERGY: 900000 3.9520 17.5382 14.4551 0.0000 -10593.3941 1434.1899 0.0000 0.0000 1802.3684 -7320.8906 305.4877 -9123.2589 -7452.3008 301.0445 320.4767 312.3788 30372.3724 34.4880 109.1695
ENERGY: 1200000 5.3335 21.1986 12.3533 0.0000 -10820.7929 1494.8143 0.0000 0.0000 1742.4312 -7544.6620 295.3288 -9287.0933 -7462.5728 299.9542 285.2365 328.2521 30242.4361 29.3793 98.8296
ENERGY: 1500000 5.6313 19.6680 12.1796 0.0000 -10680.4662 1435.9831 0.0000 0.0000 1783.0971 -7423.9070 302.2214 -9207.0042 -7470.9438 298.8998 -212.5228 -143.6633 30583.6091 13.4362 86.6383
TCL: Running FEP window  20: Lambda1 0.9500000000000003 Lambda2 1.0    [dLambda 0.04999999999999971]
TCL: Setting parameter firsttimestep to 0
TCL: Setting parameter alchLambda to 0.9500000000000003
Info: NONBONDED TABLE R-SQUARED SPACING: 0.0625
Info: NONBONDED TABLE SIZE: 705 POINTS
TCL: Setting parameter alchLambda2 to 1.0
Info: NONBONDED TABLE R-SQUARED SPACING: 0.0625
Info: NONBONDED TABLE SIZE: 705 POINTS
TCL: Running for 1500000 steps
ETITLE: TS BOND ANGLE DIHED IMPRP ELECT VDW BOUNDARY MISC KINETIC TOTAL TEMP POTENTIAL TOTALAVG TEMPAVG PRESSURE GPRESSURE VOLUME PRESSAVG GPRESSAVG
ENERGY: 0 5.6313 19.6680 12.1796 0.0000 -10680.5284 1437.1394 0.0000 0.0000 1782.2601 -7423.6500 302.0795 -9205.9102 -7423.6500 302.0795 -211.5846 -105.0340 30583.6091 -211.5846 -105.0340
ENERGY: 300000 6.2989 20.2519 11.7077 0.0000 -10667.9035 1378.7981 0.0000 0.0000 1757.8721 -7492.9749 297.9459 -9250.8470 -7465.7111 298.7370 -1024.8467 -1020.4242 31327.5501 -167.6622 -108.3184
ENERGY: 600000 3.1625 14.7722 15.4071 0.0000 -10564.3883 1341.0936 0.0000 0.0000 1726.2392 -7463.7136 292.5844 -9189.9528 -7459.7743 297.5319 -758.1798 -707.5307 31023.2964 -159.3309 -89.2756
ENERGY: 900000 3.3393 20.6598 14.2735 0.0000 -10662.5477 1407.2257 0.0000 0.0000 1829.2005 -7387.8487 310.0356 -9217.0493 -7459.9831 299.7470 -235.6729 -242.4563 30602.4920 -105.4519 -49.1877
ENERGY: 1200000 2.3021 19.5983 16.2980 0.0000 -10598.8765 1346.3103 0.0000 0.0000 1831.6206 -7382.7472 310.4457 -9214.3678 -7466.8424 300.0979 -792.2865 -721.5535 30724.4756 -228.3403 -171.4605
ENERGY: 1500000 2.2426 17.8763 14.2185 0.0000 -10603.7318 1327.3771 0.0000 0.0000 1743.6651 -7498.3522 295.5379 -9242.0173 -7471.2463 299.4467 -1071.7024 -1018.1335 30568.1638 -247.1451 -192.3496
TCL: Exiting due to exit command.
