Info: SIMULATION PARAMETERS:
Info: TIMESTEP               2
Info: NUMBER OF STEPS        0
Info: STEPS PER CYCLE        10
Info: PERIODIC CELL BASIS 1  32.143 0 0
Info: PERIODIC CELL BASIS 2  0 32.2923 0
Info: PERIODIC CELL BASIS 3  0 0 29.1212
Info: PERIODIC CELL CENTER   0 0 0
Info: WRAPPING WATERS AROUND PERIODIC BOUNDARIES ON OUTPUT.
Info: WRAPPING ALL CLUSTERS AROUND PERIODIC BOUNDARIES ON OUTPUT.
Info: FIRST LDB TIMESTEP     50
Info: LAST LDB TIMESTEP     -1
Info: HOM BACKGROUND SCALING 1
Info: PME BACKGROUND SCALING 1
Info: MIN ATOMS PER PATCH    40
Info: EMPTY PATCH LOAD       40 ATOMS
Info: VELOCITY FILE          mobley_2197088_equil.vel
Info: CENTER OF MASS MOVING INITIALLY? NO
Info: DIELECTRIC             1
Info: EXCLUDE                SCALED ONE-FOUR
Info: 1-4 ELECTROSTATICS SCALED BY 0.833333
Info: MODIFIED 1-4 VDW PARAMETERS WILL BE USED
Info: DCD FILENAME           mobley_2197088_prod.dcd
Info: DCD FREQUENCY          100000
Info: DCD FIRST STEP         100000
Info: DCD FILE WILL CONTAIN UNIT CELL DATA
Info: XST FILENAME           mobley_2197088_prod.xst
Info: XST FREQUENCY          100000
Info: NO VELOCITY DCD OUTPUT
Info: NO FORCE DCD OUTPUT
Info: OUTPUT FILENAME        mobley_2197088_prod
Info: BINARY OUTPUT FILES WILL BE USED
Info: RESTART FILENAME       mobley_2197088_prod.restart
Info: RESTART FREQUENCY      100000
Info: BINARY RESTART FILES WILL BE USED
Info: CUTOFF                 9
Info: PAIRLIST DISTANCE      11
Info: PAIRLIST SHRINK RATE   0.01
Info: PAIRLIST GROW RATE     0.01
Info: PAIRLIST TRIGGER       0.3
Info: PAIRLISTS PER CYCLE    2
Info: PAIRLISTS ENABLED
Info: MARGIN                 2
Info: HYDROGEN GROUP CUTOFF  2.5
Info: PATCH DIMENSION        15.5
Info: ENERGY OUTPUT STEPS    100000
Info: ENERGY EVALUATION STEPS    100000
Info: OUTPUT ENERGY PRECISION 4
Info: CROSSTERM ENERGY INCLUDED IN DIHEDRAL
Info: TIMING OUTPUT STEPS    1000000
Info: PRESSURE OUTPUT STEPS  100000
Info: ALCHEMICAL FEP ON
Info: FEP CURRENT LAMBDA VALUE     1
Info: FEP COMPARISON LAMBDA VALUE  0.95
Info: FEP INTRA-ALCHEMICAL NON-BONDED INTERACTIONS WILL BE RETAINED
Info: FEP INTRA-ALCHEMICAL BONDED INTERACTIONS WILL BE RETAINED
Info: FEP VDW SHIFTING COEFFICIENT 5
Info: FEP ELEC. ACTIVE FOR ANNIHILATED PARTICLES BETWEEN LAMBDA = 0 AND LAMBDA = 0.5
Info: FEP ELEC. ACTIVE FOR EXNIHILATED PARTICLES BETWEEN LAMBDA = 0.5 AND LAMBDA = 1
Info: FEP VDW ACTIVE FOR ANNIHILATED PARTICLES BETWEEN LAMBDA = 0 AND LAMBDA = 1
Info: FEP VDW ACTIVE FOR EXNIHILATED PARTICLES BETWEEN LAMBDA = 0 AND LAMBDA = 1
Info: FEP BOND ACTIVE FOR ANNIHILATED PARTICLES BETWEEN LAMBDA = 1 AND LAMBDA = 1
Info: FEP BOND ACTIVE FOR EXNIHILATED PARTICLES BETWEEN LAMBDA = 0 AND LAMBDA = 0
Info: LANGEVIN DYNAMICS ACTIVE
Info: LANGEVIN TEMPERATURE   300
Info: LANGEVIN USING BBK INTEGRATOR
Info: LANGEVIN DAMPING COEFFICIENT IS 1 INVERSE PS
Info: LANGEVIN DYNAMICS APPLIED TO HYDROGENS
Info: LANGEVIN PISTON PRESSURE CONTROL ACTIVE
Info:        TARGET PRESSURE IS 1.01325 BAR
Info:     OSCILLATION PERIOD IS 50 FS
Info:             DECAY TIME IS 25 FS
Info:     PISTON TEMPERATURE IS 300 K
Info:       PRESSURE CONTROL IS GROUP-BASED
Info:    INITIAL STRAIN RATE IS 0.000537486 0.000537486 0.000537486
Info:       CELL FLUCTUATION IS ISOTROPIC
Info: PARTICLE MESH EWALD (PME) ACTIVE
Info: PME TOLERANCE               1e-06
Info: PME EWALD COEFFICIENT       0.348832
Info: PME INTERPOLATION ORDER     4
Info: PME GRID DIMENSIONS         36 36 32
Info: PME MAXIMUM GRID SPACING    1
Info: PME CALCULATION WILL BE PERFORMED ON GPU
Info: FULL ELECTROSTATIC EVALUATION FREQUENCY      2
Info: USING VERLET I (r-RESPA) MTS SCHEME.
Info: C1 SPLITTING OF LONG RANGE ELECTROSTATICS
Info: PLACING ATOMS IN PATCHES BY HYDROGEN GROUPS
Info: RIGID BONDS TO HYDROGEN : ALL
Info:         ERROR TOLERANCE : 1e-08
Info:          MAX ITERATIONS : 100
Info: RIGID WATER USING SETTLE ALGORITHM
Info: RANDOM NUMBER SEED     1744084333
Info: USE HYDROGEN BONDS?    NO
Info: Using AMBER format force field!
Info: AMBER PARM FILE        mobley_2197088.prmtop
Info: COORDINATE PDB         mobley_2197088.pdb
Info: Exclusions will be read from PARM file!
Info: SCNB (VDW SCALING)     2
Info: USING ARITHMETIC MEAN TO COMBINE L-J SIGMA PARAMETERS
Info: BINARY COORDINATES     mobley_2197088_equil.coor
Info: SUMMARY OF PARAMETERS:
Info: 4 BONDS
Info: 3 ANGLES
Info:   3 HARMONIC
Info:   0 COSINE-BASED
Info: 5 DIHEDRAL
Info: 0 IMPROPER
Info: 0 CROSSTERM
Info: 0 VDW
Info: 10 VDW_PAIRS
Info: 0 NBTHOLE_PAIRS
Info: To read alchdata from file: mobley_2197088.pdb
Info: To read alchflag data from column: 5
Info: STRUCTURE SUMMARY:
Info: 2918 ATOMS
Info: 2917 BONDS
Info: 60 ANGLES
Info: 95 DIHEDRALS
Info: 0 IMPROPERS
Info: 0 CROSSTERMS
Info: 3058 EXCLUSIONS
Info: 2908 RIGID BONDS
Info: ALCH: 0 ATOMS TO DISAPPEAR IN FINAL STATE
Info: ALCH: 32 ATOMS TO APPEAR IN FINAL STATE
Info: 5846 DEGREES OF FREEDOM
Info: 972 HYDROGEN GROUPS
Info: 4 ATOMS IN LARGEST HYDROGEN GROUP
Info: 972 MIGRATION GROUPS
Info: 4 ATOMS IN LARGEST MIGRATION GROUP
Info: TOTAL MASS = 17473.7 amu
Info: TOTAL CHARGE = -0.000500001 e
Info: MASS DENSITY = 0.959949 g/cm^3
Info: ATOM DENSITY = 0.0965362 atoms/A^3
Info: ADDED 0 IMPLICIT EXCLUSIONS
Info: NONBONDED TABLE R-SQUARED SPACING: 0.0625
Info: NONBONDED TABLE SIZE: 705 POINTS
Info: REDUCING NUMBER OF PATCHES TO IMPROVE LOAD BALANCE
Info: REMOVING COM VELOCITY -0.120888 0.098369 -0.0222475
Info: Use 3D box decompostion in PME FFT.
Info: Updated CUDA force table with 4096 elements.
Info: Updated CUDA LJ table with 4 x 4 elements.
Info: Found 35 unique exclusion lists needing 148 bytes
TCL: Running for 1500000 steps
ETITLE: TS BOND ANGLE DIHED IMPRP ELECT VDW BOUNDARY MISC KINETIC TOTAL TEMP POTENTIAL TOTALAVG TEMPAVG PRESSURE GPRESSURE VOLUME PRESSAVG GPRESSAVG
ENERGY: 0 4.6056 13.5887 5.7383 0.0000 -10335.6618 1289.4719 0.0000 0.0000 1759.1787 -7263.0786 302.8597 -9022.2573 -7263.0786 302.8597 -983.1288 -902.6826 30226.9986 -983.1288 -902.6826
ENERGY: 300000 3.4026 12.7498 6.4420 0.0000 -10480.0971 1359.0959 0.0000 0.0000 1749.1308 -7349.2761 301.1299 -9098.4068 -7304.5504 300.8936 -796.5635 -717.9126 30287.0493 -411.0093 -348.4992
ENERGY: 600000 4.4604 18.8931 4.5836 0.0000 -10386.6434 1307.4589 0.0000 0.0000 1759.6358 -7291.6116 302.9384 -9051.2474 -7314.2170 301.8913 -467.6895 -446.6346 29683.5310 -412.7560 -352.2914
ENERGY: 900000 4.0178 11.8549 4.7038 0.0000 -10379.4235 1342.7739 0.0000 0.0000 1755.6231 -7260.4499 302.2476 -9016.0730 -7306.9572 302.3821 -709.5732 -630.8861 30667.6696 -315.2193 -252.1843
ENERGY: 1200000 4.9208 16.7915 5.6300 0.0000 -10541.9496 1388.4514 0.0000 0.0000 1753.4346 -7372.7213 301.8708 -9126.1559 -7308.6933 302.2584 -208.9003 -168.3697 29692.8243 -229.1657 -165.7016
ENERGY: 1500000 2.3070 18.3044 5.8234 0.0000 -10473.0851 1390.4453 0.0000 0.0000 1708.0004 -7348.2047 294.0489 -9056.2050 -7320.6330 301.1084 -115.5795 -84.9305 30086.8198 -161.9695 -100.7873
TCL: Running FEP window   2: Lambda1 0.95   Lambda2 0.8999999999999999 [dLambda -0.050000000000000044]
TCL: Setting parameter firsttimestep to 0
TCL: Setting parameter alchLambda to 0.95
Info: NONBONDED TABLE R-SQUARED SPACING: 0.0625
Info: NONBONDED TABLE SIZE: 705 POINTS
TCL: Setting parameter alchLambda2 to 0.8999999999999999
Info: NONBONDED TABLE R-SQUARED SPACING: 0.0625
Info: NONBONDED TABLE SIZE: 705 POINTS
TCL: Running for 1500000 steps
ETITLE: TS BOND ANGLE DIHED IMPRP ELECT VDW BOUNDARY MISC KINETIC TOTAL TEMP POTENTIAL TOTALAVG TEMPAVG PRESSURE GPRESSURE VOLUME PRESSAVG GPRESSAVG
ENERGY: 0 2.3070 18.3044 5.8234 0.0000 -10473.1215 1390.4530 0.0000 0.0000 1707.1298 -7349.1040 293.8990 -9056.2338 -7349.1040 293.8990 -184.6805 -108.5816 30086.8198 -184.6805 -108.5816
ENERGY: 300000 3.6099 13.8012 6.0704 0.0000 -10567.5524 1450.7736 0.0000 0.0000 1770.6536 -7322.6438 304.8352 -9093.2974 -7312.0414 303.3431 454.8344 514.9073 29616.0013 -7.2089 76.7839
ENERGY: 600000 3.2292 15.6473 5.7677 0.0000 -10450.6574 1306.5577 0.0000 0.0000 1790.8627 -7328.5928 308.3144 -9119.4555 -7317.4557 303.4585 -1376.8023 -1284.6873 30663.2260 -24.1229 49.2081
ENERGY: 900000 3.6910 16.6643 5.3489 0.0000 -10504.5544 1366.3906 0.0000 0.0000 1712.8177 -7399.6419 294.8782 -9112.4596 -7328.4712 301.6512 -649.2987 -652.8232 30482.4752 -157.5321 -91.4424
ENERGY: 1200000 2.7749 14.6291 5.5080 0.0000 -10494.3128 1389.8264 0.0000 0.0000 1739.0273 -7342.5471 299.3905 -9081.5744 -7330.6044 301.0468 -91.0537 -81.7102 30208.9875 -82.9995 -16.1971
ENERGY: 1500000 6.1877 16.4898 4.4730 0.0000 -10415.8045 1350.0968 0.0000 0.0000 1741.2054 -7297.3519 299.7655 -9038.5573 -7327.2034 300.9609 -283.4708 -211.1102 29740.6974 -122.0162 -52.6363
TCL: Running FEP window   3: Lambda1 0.8999999999999999 Lambda2 0.8499999999999999 [dLambda -0.050000000000000044]
TCL: Setting parameter firsttimestep to 0
TCL: Setting parameter alchLambda to 0.8999999999999999
Info: NONBONDED TABLE R-SQUARED SPACING: 0.0625
Info: NONBONDED TABLE SIZE: 705 POINTS
TCL: Setting parameter alchLambda2 to 0.8499999999999999
Info: NONBONDED TABLE R-SQUARED SPACING: 0.0625
Info: NONBONDED TABLE SIZE: 705 POINTS
TCL: Running for 1500000 steps
ETITLE: TS BOND ANGLE DIHED IMPRP ELECT VDW BOUNDARY MISC KINETIC TOTAL TEMP POTENTIAL TOTALAVG TEMPAVG PRESSURE GPRESSURE VOLUME PRESSAVG GPRESSAVG
ENERGY: 0 6.1877 16.4898 4.4730 0.0000 -10415.8280 1349.8248 0.0000 0.0000 1740.3591 -7298.4937 299.6198 -9038.8528 -7298.4937 299.6198 -308.5531 -237.4434 29740.6974 -308.5531 -237.4434
ENERGY: 300000 3.8171 19.1995 6.1339 0.0000 -10461.4113 1383.9624 0.0000 0.0000 1737.8657 -7310.4327 299.1905 -9048.2984 -7320.0271 300.4615 -148.9419 -100.7335 29714.1678 -139.6560 -44.1263
ENERGY: 600000 2.0439 8.2683 6.3241 0.0000 -10511.6738 1424.4976 0.0000 0.0000 1724.7994 -7345.7405 296.9410 -9070.5399 -7337.0929 298.6575 175.2725 213.5402 29798.2874 -41.3803 43.3985
ENERGY: 900000 3.7959 17.5095 6.8334 0.0000 -10647.6482 1541.6306 0.0000 0.0000 1761.3960 -7316.4828 303.2415 -9077.8788 -7339.4520 299.9038 975.9306 1085.9838 30067.8803 121.7429 204.8614
ENERGY: 1200000 0.6468 11.6392 5.6930 0.0000 -10494.1849 1445.6472 0.0000 0.0000 1776.4112 -7254.1476 305.8265 -9030.5588 -7334.5466 301.0584 548.1046 608.0905 29964.2049 236.9121 317.8588
ENERGY: 1500000 2.1368 14.5711 4.4724 0.0000 -10594.0877 1463.5967 0.0000 0.0000 1730.5014 -7378.8094 297.9226 -9109.3108 -7336.7174 300.1927 79.3491 138.4964 30380.6932 185.2992 262.6587
TCL: Running FEP window   4: Lambda1 0.8499999999999999 Lambda2 0.7999999999999998 [dLambda -0.050000000000000044]
TCL: Setting parameter firsttimestep to 0
TCL: Setting parameter alchLambda to 0.8499999999999999
Info: NONBONDED TABLE R-SQUARED SPACING: 0.0625
Info: NONBONDED TABLE SIZE: 705 POINTS
TCL: Setting parameter alchLambda2 to 0.7999999999999998
Info: NONBONDED TABLE R-SQUARED SPACING: 0.0625
Info: NONBONDED TABLE SIZE: 705 POINTS
TCL: Running for 1500000 steps
ETITLE: TS BOND ANGLE DIHED IMPRP ELECT VDW BOUNDARY MISC KINETIC TOTAL TEMP POTENTIAL TOTALAVG TEMPAVG PRESSURE GPRESSURE VOLUME PRESSAVG GPRESSAVG
ENERGY: 0 2.1368 14.5711 4.4724 0.0000 -10594.1127 1464.2741 0.0000 0.0000 1729.6014 -7379.0568 297.7677 -9108.6583 -7379.0568 297.7677 37.6656 128.8993 30380.6932 37.6656 128.8993
ENERGY: 300000 0.8815 15.9472 4.3829 0.0000 -10395.4808 1313.7560 0.0000 0.0000 1698.7044 -7361.8086 292.4485 -9060.5130 -7349.1173 296.2758 -537.0540 -494.0435 29897.1024 -132.8794 -84.7619
ENERGY: 600000 4.2239 12.7883 6.4040 0.0000 -10403.3562 1323.1626 0.0000 0.0000 1725.9808 -7330.7966 297.1444 -9056.7774 -7318.2390 299.0286 -876.1359 -836.0299 30474.5418 -139.8014 -94.5557
ENERGY: 900000 7.5730 22.8693 5.0421 0.0000 -10561.3287 1483.0138 0.0000 0.0000 1715.1307 -7327.6997 295.2764 -9042.8304 -7329.0616 299.6551 540.7115 619.6886 30051.5864 -4.1648 35.9918
ENERGY: 1200000 3.9760 10.8664 5.5837 0.0000 -10526.5524 1425.5510 0.0000 0.0000 1765.2319 -7315.3434 303.9018 -9080.5753 -7332.5171 299.7187 28.0814 98.6739 29936.3807 -59.9512 -16.4703
ENERGY: 1500000 2.4402 18.4678 4.1271 0.0000 -10667.0603 1498.7241 0.0000 0.0000 1783.5460 -7359.7552 307.0548 -9143.3012 -7344.0455 299.3424 756.6783 826.9136 29544.6503 15.9046 63.8091
TCL: Running FEP window   5: Lambda1 0.7999999999999998 Lambda2 0.7499999999999998 [dLambda -0.050000000000000044]
TCL: Setting parameter firsttimestep to 0
TCL: Setting parameter alchLambda to 0.7999999999999998
Info: NONBONDED TABLE R-SQUARED SPACING: 0.0625
Info: NONBONDED TABLE SIZE: 705 POINTS
TCL: Setting parameter alchLambda2 to 0.7499999999999998
Info: NONBONDED TABLE R-SQUARED SPACING: 0.0625
Info: NONBONDED TABLE SIZE: 705 POINTS
TCL: Running for 1500000 steps
ETITLE: TS BOND ANGLE DIHED IMPRP ELECT VDW BOUNDARY MISC KINETIC TOTAL TEMP POTENTIAL TOTALAVG TEMPAVG PRESSURE GPRESSURE VOLUME PRESSAVG GPRESSAVG
ENERGY: 0 2.4402 18.4678 4.1271 0.0000 -10667.0689 1499.0616 0.0000 0.0000 1782.6834 -7360.2889 306.9063 -9142.9723 -7360.2889 306.9063 728.2065 813.4366 29544.6503 728.2065 813.4366
ENERGY: 300000 2.3958 22.2068 5.2289 0.0000 -10405.0891 1382.4434 0.0000 0.0000 1775.2586 -7217.5555 305.6280 -8992.8141 -7305.3502 301.6465 205.1749 245.2631 29929.7550 67.5590 125.3271
ENERGY: 600000 2.1364 16.6055 6.4650 0.0000 -10562.4079 1467.5337 0.0000 0.0000 1794.8588 -7274.8086 309.0024 -9069.6674 -7293.0394 303.4136 316.4060 358.9059 30304.9526 53.2805 106.7713
ENERGY: 900000 6.1819 15.0620 6.9843 0.0000 -10447.5554 1440.4931 0.0000 0.0000 1729.5635 -7249.2706 297.7612 -8978.8340 -7296.4518 302.3052 499.9389 562.0820 30275.8104 20.0081 71.4344
ENERGY: 1200000 2.1429 12.2250 6.3558 0.0000 -10476.4691 1354.9865 0.0000 0.0000 1768.5128 -7332.2460 304.4667 -9100.7588 -7303.5417 301.9116 -643.9570 -606.9205 30064.0631 -195.8163 -145.4271
ENERGY: 1500000 3.0897 16.6077 6.3550 0.0000 -10553.9487 1451.9661 0.0000 0.0000 1686.7270 -7389.2031 290.3865 -9075.9302 -7310.3163 301.6643 264.1815 283.8396 30061.8324 -119.1509 -68.5256
TCL: Running FEP window   6: Lambda1 0.7499999999999998 Lambda2 0.6999999999999997 [dLambda -0.050000000000000044]
TCL: Setting parameter firsttimestep to 0
TCL: Setting parameter alchLambda to 0.7499999999999998
Info: NONBONDED TABLE R-SQUARED SPACING: 0.0625
Info: NONBONDED TABLE SIZE: 705 POINTS
TCL: Setting parameter alchLambda2 to 0.6999999999999997
Info: NONBONDED TABLE R-SQUARED SPACING: 0.0625
Info: NONBONDED TABLE SIZE: 705 POINTS
TCL: Running for 1500000 steps
ETITLE: TS BOND ANGLE DIHED IMPRP ELECT VDW BOUNDARY MISC KINETIC TOTAL TEMP POTENTIAL TOTALAVG TEMPAVG PRESSURE GPRESSURE VOLUME PRESSAVG GPRESSAVG
ENERGY: 0 3.0897 16.6077 6.3550 0.0000 -10553.9577 1452.6139 0.0000 0.0000 1685.8247 -7389.4667 290.2311 -9075.2914 -7389.4667 290.2311 189.5367 269.6232 30061.8324 189.5367 269.6232
ENERGY: 300000 3.3518 15.0406 5.7327 0.0000 -10545.5429 1449.3318 0.0000 0.0000 1763.6614 -7308.4246 303.6315 -9072.0860 -7375.9714 298.5709 412.6786 435.8149 29995.1359 132.6846 167.9812
ENERGY: 600000 2.0163 16.1788 7.2695 0.0000 -10374.2826 1336.5858 0.0000 0.0000 1772.6203 -7239.6119 305.1738 -9012.2322 -7353.5340 298.2285 -631.5711 -556.8082 30397.3265 34.2330 89.2971
ENERGY: 900000 1.8352 15.7043 6.0020 0.0000 -10540.4485 1476.1041 0.0000 0.0000 1750.1237 -7290.6790 301.3008 -9040.8027 -7337.5375 297.8209 723.9634 786.6803 29748.8613 20.9137 79.6912
ENERGY: 1200000 3.3372 16.3154 7.0590 0.0000 -10452.7022 1472.7744 0.0000 0.0000 1717.7799 -7235.4364 295.7325 -8953.2163 -7340.6770 296.8178 779.0888 825.2890 30056.2592 20.1277 82.9638
ENERGY: 1500000 3.0963 14.9306 8.1564 0.0000 -10318.7966 1341.9561 0.0000 0.0000 1696.0863 -7254.5710 291.9978 -8950.6572 -7337.5934 296.7598 -499.8819 -389.0019 30288.1895 -4.3479 61.9811
TCL: Running FEP window   7: Lambda1 0.6999999999999997 Lambda2 0.6499999999999997 [dLambda -0.050000000000000044]
TCL: Setting parameter firsttimestep to 0
TCL: Setting parameter alchLambda to 0.6999999999999997
Info: NONBONDED TABLE R-SQUARED SPACING: 0.0625
Info: NONBONDED TABLE SIZE: 705 POINTS
TCL: Setting parameter alchLambda2 to 0.6499999999999997
Info: NONBONDED TABLE R-SQUARED SPACING: 0.0625
Info: NONBONDED TABLE SIZE: 705 POINTS
TCL: Running for 1500000 steps
ETITLE: TS BOND ANGLE DIHED IMPRP ELECT VDW BOUNDARY MISC KINETIC TOTAL TEMP POTENTIAL TOTALAVG TEMPAVG PRESSURE GPRESSURE VOLUME PRESSAVG GPRESSAVG
ENERGY: 0 3.0963 14.9306 8.1564 0.0000 -10318.7495 1342.5877 0.0000 0.0000 1695.2052 -7254.7733 291.8461 -8949.9785 -7254.7733 291.8461 -488.9728 -399.6281 30288.1895 -488.9728 -399.6281
ENERGY: 300000 2.9240 16.1895 5.9988 0.0000 -10458.7961 1379.3561 0.0000 0.0000 1720.5569 -7333.7708 296.2106 -9054.3276 -7305.3488 295.7540 -61.7532 28.1814 29582.6769 -477.3050 -362.1621
ENERGY: 600000 1.3124 12.2615 5.4896 0.0000 -10521.0932 1389.3702 0.0000 0.0000 1750.5055 -7362.1540 301.3666 -9112.6596 -7325.8029 298.3773 -138.9254 11.6248 29865.4736 -127.4961 -28.0995
ENERGY: 900000 2.3279 14.2131 6.5925 0.0000 -10465.8964 1340.5303 0.0000 0.0000 1769.2739 -7332.9587 304.5977 -9102.2326 -7336.3155 299.5177 -493.4237 -423.8384 29574.3560 -240.9179 -151.5899
ENERGY: 1200000 3.9699 22.3587 6.7441 0.0000 -10409.9208 1349.2815 0.0000 0.0000 1762.1563 -7265.4104 303.3724 -9027.5667 -7328.9214 299.2912 -571.5270 -532.0497 30414.1486 -231.7014 -152.1941
ENERGY: 1500000 1.4927 18.3436 5.2009 0.0000 -10634.8108 1508.2110 0.0000 0.0000 1769.8650 -7331.6975 304.6995 -9101.5626 -7331.2679 300.0254 446.8667 510.7501 30594.2599 -125.5735 -46.0430
TCL: Running FEP window   8: Lambda1 0.6499999999999997 Lambda2 0.5999999999999996 [dLambda -0.050000000000000044]
TCL: Setting parameter firsttimestep to 0
TCL: Setting parameter alchLambda to 0.6499999999999997
Info: NONBONDED TABLE R-SQUARED SPACING: 0.0625
Info: NONBONDED TABLE SIZE: 705 POINTS
TCL: Setting parameter alchLambda2 to 0.5999999999999996
Info: NONBONDED TABLE R-SQUARED SPACING: 0.0625
Info: NONBONDED TABLE SIZE: 705 POINTS
TCL: Running for 1500000 steps
ETITLE: TS BOND ANGLE DIHED IMPRP ELECT VDW BOUNDARY MISC KINETIC TOTAL TEMP POTENTIAL TOTALAVG TEMPAVG PRESSURE GPRESSURE VOLUME PRESSAVG GPRESSAVG
ENERGY: 0 1.4927 18.3436 5.2009 0.0000 -10634.8189 1508.6689 0.0000 0.0000 1769.0093 -7332.1035 304.5522 -9101.1128 -7332.1035 304.5522 417.6158 501.1703 30594.2599 417.6158 501.1703
ENERGY: 300000 4.5310 13.2922 5.9947 0.0000 -10378.1187 1286.6543 0.0000 0.0000 1695.2403 -7372.4062 291.8521 -9067.6465 -7306.7203 298.9619 -1446.8723 -1329.6735 30398.6328 -197.5678 -131.6796
ENERGY: 600000 2.3093 13.7666 6.6023 0.0000 -10378.5435 1346.6362 0.0000 0.0000 1748.6629 -7260.5661 301.0493 -9009.2290 -7297.1706 299.5280 -290.2360 -260.9401 30091.3585 -119.6340 -64.8094
ENERGY: 900000 2.5601 10.9245 5.7203 0.0000 -10502.2461 1352.4821 0.0000 0.0000 1739.3763 -7391.1828 299.4506 -9130.5591 -7301.0860 299.9403 -608.7329 -592.8010 30078.0380 -142.4865 -88.0244
ENERGY: 1200000 3.2715 13.0051 6.0274 0.0000 -10465.9670 1375.1412 0.0000 0.0000 1795.9017 -7272.6201 309.1820 -9068.5218 -7296.8880 300.3853 -285.1750 -216.8825 29965.7177 -5.4487 42.9680
ENERGY: 1500000 4.8449 15.9911 4.6056 0.0000 -10443.3628 1410.9980 0.0000 0.0000 1777.1683 -7229.7550 305.9568 -9006.9233 -7300.1284 300.4545 128.8924 256.6494 30042.7143 32.2521 84.4361
TCL: Running FEP window   9: Lambda1 0.5999999999999996 Lambda2 0.5499999999999996 [dLambda -0.050000000000000044]
TCL: Setting parameter firsttimestep to 0
TCL: Setting parameter alchLambda to 0.5999999999999996
Info: NONBONDED TABLE R-SQUARED SPACING: 0.0625
Info: NONBONDED TABLE SIZE: 705 POINTS
TCL: Setting parameter alchLambda2 to 0.5499999999999996
Info: NONBONDED TABLE R-SQUARED SPACING: 0.0625
Info: NONBONDED TABLE SIZE: 705 POINTS
TCL: Running for 1500000 steps
ETITLE: TS BOND ANGLE DIHED IMPRP ELECT VDW BOUNDARY MISC KINETIC TOTAL TEMP POTENTIAL TOTALAVG TEMPAVG PRESSURE GPRESSURE VOLUME PRESSAVG GPRESSAVG
ENERGY: 0 4.8449 15.9911 4.6056 0.0000 -10443.3926 1411.8632 0.0000 0.0000 1776.3091 -7229.7787 305.8089 -9006.0878 -7229.7787 305.8089 159.2460 254.4134 30042.7143 159.2460 254.4134
ENERGY: 300000 2.3817 10.9376 5.2808 0.0000 -10335.9415 1307.0662 0.0000 0.0000 1763.2365 -7247.0386 303.5583 -9010.2752 -7262.5441 305.4074 -792.0751 -687.0215 30208.0171 -300.1606 -227.8001
ENERGY: 600000 3.4900 17.5785 7.5323 0.0000 -10518.2369 1388.6412 0.0000 0.0000 1759.3709 -7341.6240 302.8928 -9100.9950 -7283.0938 302.8662 -557.8209 -487.6295 30096.4938 -306.5001 -231.1692
ENERGY: 900000 1.4065 15.9383 6.0845 0.0000 -10467.8767 1374.4894 0.0000 0.0000 1747.1530 -7322.8050 300.7894 -9069.9580 -7290.7292 302.2076 -387.5225 -290.6850 30054.4776 -382.7955 -305.5117
ENERGY: 1200000 3.6590 22.5708 8.6484 0.0000 -10440.4415 1360.1401 0.0000 0.0000 1728.6575 -7316.7656 297.6052 -9045.4232 -7302.5108 302.0056 -308.7079 -298.6248 30004.2722 -320.1607 -253.4831
ENERGY: 1500000 3.1955 20.4745 5.8056 0.0000 -10440.6657 1372.7172 0.0000 0.0000 1758.3155 -7280.1575 302.7111 -9038.4730 -7306.3294 301.5738 6.6488 -33.9544 29893.8905 -214.4467 -150.7518
TCL: Running FEP window  10: Lambda1 0.5499999999999996 Lambda2 0.4999999999999996 [dLambda -0.04999999999999999]
TCL: Setting parameter firsttimestep to 0
TCL: Setting parameter alchLambda to 0.5499999999999996
Info: NONBONDED TABLE R-SQUARED SPACING: 0.0625
Info: NONBONDED TABLE SIZE: 705 POINTS
TCL: Setting parameter alchLambda2 to 0.4999999999999996
Info: NONBONDED TABLE R-SQUARED SPACING: 0.0625
Info: NONBONDED TABLE SIZE: 705 POINTS
TCL: Running for 1500000 steps
ETITLE: TS BOND ANGLE DIHED IMPRP ELECT VDW BOUNDARY MISC KINETIC TOTAL TEMP POTENTIAL TOTALAVG TEMPAVG PRESSURE GPRESSURE VOLUME PRESSAVG GPRESSAVG
ENERGY: 0 3.1955 20.4745 5.8056 0.0000 -10440.6296 1372.7008 0.0000 0.0000 1757.4394 -7281.0139 302.5603 -9038.4533 -7281.0139 302.5603 -123.3342 -44.0360 29893.8905 -123.3342 -44.0360
ENERGY: 300000 0.8249 12.7837 5.5447 0.0000 -10517.7704 1387.1721 0.0000 0.0000 1755.4560 -7355.9890 302.2188 -9111.4450 -7293.5401 302.7744 -246.9790 -147.8961 29836.8436 -346.3640 -276.6259
ENERGY: 600000 5.0915 21.9920 5.8605 0.0000 -10413.4680 1338.2664 0.0000 0.0000 1740.5247 -7301.7328 299.6483 -9042.2575 -7304.3698 303.0775 -546.2018 -469.9821 29749.0245 -194.1871 -127.2554
ENERGY: 900000 4.7639 13.0810 6.3406 0.0000 -10441.9603 1370.6764 0.0000 0.0000 1744.5011 -7302.5973 300.3328 -9047.0984 -7309.6115 301.0177 -270.6085 -254.4511 29909.1983 -103.4621 -46.9125
ENERGY: 1200000 3.0665 12.8107 4.8739 0.0000 -10487.5413 1381.8186 0.0000 0.0000 1734.7102 -7350.2614 298.6472 -9084.9716 -7314.1510 300.6486 -351.2808 -255.6422 29832.6102 -94.5835 -35.5937
ENERGY: 1500000 5.4244 14.4080 9.0857 0.0000 -10561.0812 1421.7906 0.0000 0.0000 1776.9860 -7333.3866 305.9254 -9110.3726 -7317.8846 300.3404 -182.0624 -174.3902 30009.4641 -107.7508 -50.7655
TCL: Running FEP window  11: Lambda1 0.4999999999999996 Lambda2 0.4499999999999996 [dLambda -0.04999999999999999]
TCL: Setting parameter firsttimestep to 0
TCL: Setting parameter alchLambda to 0.4999999999999996
Info: NONBONDED TABLE R-SQUARED SPACING: 0.0625
Info: NONBONDED TABLE SIZE: 705 POINTS
TCL: Setting parameter alchLambda2 to 0.4499999999999996
Info: NONBONDED TABLE R-SQUARED SPACING: 0.0625
Info: NONBONDED TABLE SIZE: 705 POINTS
TCL: Running for 1500000 steps
ETITLE: TS BOND ANGLE DIHED IMPRP ELECT VDW BOUNDARY MISC KINETIC TOTAL TEMP POTENTIAL TOTALAVG TEMPAVG PRESSURE GPRESSURE VOLUME PRESSAVG GPRESSAVG
ENERGY: 0 5.4244 14.4080 9.0857 0.0000 -10561.1230 1422.2710 0.0000 0.0000 1776.1052 -7333.8288 305.7738 -9109.9339 -7333.8288 305.7738 -248.5462 -181.7404 30009.4641 -248.5462 -181.7404
ENERGY: 300000 2.8259 9.8892 5.7583 0.0000 -10442.6188 1368.1830 0.0000 0.0000 1770.5951 -7285.3673 304.8252 -9055.9623 -7339.6896 300.1300 -116.1167 -67.8758 29947.6964 -178.2099 -105.2444
ENERGY: 600000 3.1241 21.0876 6.3176 0.0000 -10513.8999 1401.9028 0.0000 0.0000 1739.4244 -7342.0433 299.4588 -9081.4677 -7338.6089 300.2549 -231.0823 -164.2075 29989.8348 -62.5223 15.2068
ENERGY: 900000 3.4545 17.2661 5.7492 0.0000 -10367.1260 1293.4406 0.0000 0.0000 1720.3029 -7326.9127 296.1669 -9047.2156 -7327.4459 300.0312 -1148.8571 -1064.4818 30392.8575 -315.8407 -244.9736
ENERGY: 1200000 1.4752 18.4089 5.7066 0.0000 -10477.9965 1399.1849 0.0000 0.0000 1786.4847 -7266.7362 307.5607 -9053.2209 -7322.2494 300.2682 -84.4320 8.9691 29790.9979 -258.6747 -188.8925
ENERGY: 1500000 4.2197 13.1532 5.8330 0.0000 -10550.8179 1461.2279 0.0000 0.0000 1734.0380 -7332.3461 298.5315 -9066.3841 -7326.7510 299.5186 493.5032 605.0625 29681.3690 -204.1729 -137.1169
TCL: Running FEP window  12: Lambda1 0.4499999999999996 Lambda2 0.39999999999999963 [dLambda -0.04999999999999999]
TCL: Setting parameter firsttimestep to 0
TCL: Setting parameter alchLambda to 0.4499999999999996
Info: NONBONDED TABLE R-SQUARED SPACING: 0.0625
Info: NONBONDED TABLE SIZE: 705 POINTS
TCL: Setting parameter alchLambda2 to 0.39999999999999963
Info: NONBONDED TABLE R-SQUARED SPACING: 0.0625
Info: NONBONDED TABLE SIZE: 705 POINTS
TCL: Running for 1500000 steps
ETITLE: TS BOND ANGLE DIHED IMPRP ELECT VDW BOUNDARY MISC KINETIC TOTAL TEMP POTENTIAL TOTALAVG TEMPAVG PRESSURE GPRESSURE VOLUME PRESSAVG GPRESSAVG
ENERGY: 0 4.2197 13.1532 5.8330 0.0000 -10550.8184 1461.6376 0.0000 0.0000 1733.1746 -7332.8003 298.3829 -9065.9749 -7332.8003 298.3829 511.0014 596.6945 29681.3690 511.0014 596.6945
ENERGY: 300000 1.3996 12.6983 5.6435 0.0000 -10567.7525 1480.5237 0.0000 0.0000 1690.5613 -7376.9261 291.0466 -9067.4874 -7333.8730 299.0204 607.4238 703.0952 29714.7845 157.7115 264.9046
ENERGY: 600000 2.1462 16.0581 7.8081 0.0000 -10423.4448 1379.1242 0.0000 0.0000 1757.1885 -7261.1197 302.5171 -9018.3082 -7321.8596 300.7072 -223.8092 -194.1844 29992.4240 28.9457 120.0640
ENERGY: 900000 2.4448 16.5565 5.8940 0.0000 -10617.8036 1491.1143 0.0000 0.0000 1641.1896 -7460.6045 282.5468 -9101.7940 -7339.1113 298.7730 583.3192 666.4048 29586.0637 47.2700 138.0447
ENERGY: 1200000 7.5751 13.8839 6.3258 0.0000 -10390.5975 1371.4553 0.0000 0.0000 1697.9105 -7293.4470 292.3118 -8991.3575 -7329.8926 297.5973 -531.6964 -473.0779 30715.3385 -114.5352 -25.4747
ENERGY: 1500000 9.9837 12.3095 6.9034 0.0000 -10601.1995 1503.7539 0.0000 0.0000 1799.6321 -7268.6170 309.8242 -9068.2491 -7327.5854 298.2966 893.8421 888.1811 29607.2454 -12.5118 65.1316
TCL: Running FEP window  13: Lambda1 0.39999999999999963 Lambda2 0.34999999999999964 [dLambda -0.04999999999999999]
TCL: Setting parameter firsttimestep to 0
TCL: Setting parameter alchLambda to 0.39999999999999963
Info: NONBONDED TABLE R-SQUARED SPACING: 0.0625
Info: NONBONDED TABLE SIZE: 705 POINTS
TCL: Setting parameter alchLambda2 to 0.34999999999999964
Info: NONBONDED TABLE R-SQUARED SPACING: 0.0625
Info: NONBONDED TABLE SIZE: 705 POINTS
TCL: Running for 1500000 steps
ETITLE: TS BOND ANGLE DIHED IMPRP ELECT VDW BOUNDARY MISC KINETIC TOTAL TEMP POTENTIAL TOTALAVG TEMPAVG PRESSURE GPRESSURE VOLUME PRESSAVG GPRESSAVG
ENERGY: 0 9.9837 12.3095 6.9034 0.0000 -10601.1989 1503.8767 0.0000 0.0000 1798.7293 -7269.3963 309.6688 -9068.1256 -7269.3963 309.6688 802.9489 875.5295 29607.2454 802.9489 875.5295
ENERGY: 300000 1.7765 16.9660 7.9094 0.0000 -10443.2039 1352.1845 0.0000 0.0000 1745.3324 -7319.0351 300.4760 -9064.3675 -7319.2187 302.0161 -479.6552 -392.1241 29718.1684 84.1077 170.0712
ENERGY: 600000 1.2767 12.3750 4.6152 0.0000 -10439.3501 1358.3577 0.0000 0.0000 1829.7684 -7232.9571 315.0124 -9062.7256 -7330.6636 304.6542 -60.6520 -58.6109 29710.8419 180.3467 241.8574
ENERGY: 900000 1.7238 11.6709 5.9552 0.0000 -10553.6574 1408.3812 0.0000 0.0000 1758.0425 -7367.8838 302.6641 -9125.9263 -7339.2562 304.4361 -291.8332 -243.0835 30002.9156 147.6118 213.3365
ENERGY: 1200000 3.2720 10.4298 4.6233 0.0000 -10338.8594 1347.4776 0.0000 0.0000 1734.5575 -7238.4991 298.6210 -8973.0567 -7339.9520 302.0658 -176.9926 -81.6395 29606.1918 101.9680 169.6991
ENERGY: 1500000 3.3895 17.6119 5.1030 0.0000 -10605.5268 1475.5221 0.0000 0.0000 1738.2792 -7365.6211 299.2617 -9103.9003 -7339.9871 302.0665 217.9466 300.4917 30032.9721 122.6210 191.8147
TCL: Running FEP window  14: Lambda1 0.34999999999999964 Lambda2 0.29999999999999966 [dLambda -0.04999999999999999]
TCL: Setting parameter firsttimestep to 0
TCL: Setting parameter alchLambda to 0.34999999999999964
Info: NONBONDED TABLE R-SQUARED SPACING: 0.0625
Info: NONBONDED TABLE SIZE: 705 POINTS
TCL: Setting parameter alchLambda2 to 0.29999999999999966
Info: NONBONDED TABLE R-SQUARED SPACING: 0.0625
Info: NONBONDED TABLE SIZE: 705 POINTS
TCL: Running for 1500000 steps
ETITLE: TS BOND ANGLE DIHED IMPRP ELECT VDW BOUNDARY MISC KINETIC TOTAL TEMP POTENTIAL TOTALAVG TEMPAVG PRESSURE GPRESSURE VOLUME PRESSAVG GPRESSAVG
ENERGY: 0 3.3895 17.6119 5.1030 0.0000 -10605.5268 1476.2734 0.0000 0.0000 1737.4038 -7365.7453 299.1110 -9103.1491 -7365.7453 299.1110 207.0723 301.9455 30032.9721 207.0723 301.9455
ENERGY: 300000 2.6797 20.1869 5.9608 0.0000 -10549.3485 1439.2744 0.0000 0.0000 1769.5315 -7311.7151 304.6421 -9081.2466 -7328.5896 297.7946 593.9437 671.0201 29030.6792 239.2469 303.9311
ENERGY: 600000 1.4279 17.0928 6.7041 0.0000 -10548.1687 1418.5991 0.0000 0.0000 1697.3285 -7407.0163 292.2116 -9104.3448 -7336.4255 298.1940 -14.2199 9.0802 29686.6167 306.0649 371.3051
ENERGY: 900000 2.8033 19.1252 5.9584 0.0000 -10586.5610 1508.3911 0.0000 0.0000 1699.8280 -7350.4550 292.6419 -9050.2829 -7330.2218 298.2496 998.0697 1054.4332 29250.9209 380.0647 435.2392
ENERGY: 1200000 2.2587 16.0226 4.0442 0.0000 -10553.6712 1491.6051 0.0000 0.0000 1776.6632 -7263.0774 305.8699 -9039.7406 -7328.2338 298.5802 703.4877 815.0537 29526.2408 395.7998 451.6502
ENERGY: 1500000 2.5895 13.0627 5.1358 0.0000 -10514.7432 1431.5032 0.0000 0.0000 1732.5258 -7329.9260 298.2712 -9062.4519 -7327.0940 299.0440 239.9649 340.8149 29634.2491 342.4865 395.3964
TCL: Running FEP window  15: Lambda1 0.29999999999999966 Lambda2 0.24999999999999967 [dLambda -0.04999999999999999]
TCL: Setting parameter firsttimestep to 0
TCL: Setting parameter alchLambda to 0.29999999999999966
Info: NONBONDED TABLE R-SQUARED SPACING: 0.0625
Info: NONBONDED TABLE SIZE: 705 POINTS
TCL: Setting parameter alchLambda2 to 0.24999999999999967
Info: NONBONDED TABLE R-SQUARED SPACING: 0.0625
Info: NONBONDED TABLE SIZE: 705 POINTS
TCL: Running for 1500000 steps
ETITLE: TS BOND ANGLE DIHED IMPRP ELECT VDW BOUNDARY MISC KINETIC TOTAL TEMP POTENTIAL TOTALAVG TEMPAVG PRESSURE GPRESSURE VOLUME PRESSAVG GPRESSAVG
ENERGY: 0 2.5895 13.0627 5.1358 0.0000 -10514.7426 1431.2497 0.0000 0.0000 1731.6461 -7331.0586 298.1197 -9062.7047 -7331.0586 298.1197 257.1359 330.9501 29634.2491 257.1359 330.9501
ENERGY: 300000 4.2796 14.3600 5.0313 0.0000 -10462.4382 1395.8614 0.0000 0.0000 1820.8255 -7222.0804 313.4728 -9042.9059 -7272.8727 303.5625 -176.3786 -98.5578 30119.7788 425.8945 513.8107
ENERGY: 600000 4.1945 19.8939 4.5212 0.0000 -10354.6553 1317.8688 0.0000 0.0000 1723.4060 -7284.7707 296.7011 -9008.1767 -7283.5854 300.5907 -1058.6440 -987.3383 30326.0065 55.3522 142.2645
ENERGY: 900000 3.9298 14.7867 5.1315 0.0000 -10431.3872 1372.8710 0.0000 0.0000 1771.7875 -7262.8807 305.0305 -9034.6682 -7296.2479 300.7999 -518.0037 -389.7630 29991.3029 29.9430 128.9878
ENERGY: 1200000 3.3223 13.3463 6.0444 0.0000 -10493.8932 1466.8043 0.0000 0.0000 1730.7171 -7273.6588 297.9598 -9004.3758 -7292.4968 301.1182 378.1648 467.6747 30165.5484 81.8369 171.3326
ENERGY: 1500000 3.2183 27.7783 6.6183 0.0000 -10453.6774 1435.7179 0.0000 0.0000 1737.9755 -7242.3691 299.2094 -8980.3445 -7292.8664 300.0176 235.2062 325.7752 30142.3934 21.0398 115.5431
TCL: Running FEP window  16: Lambda1 0.24999999999999967 Lambda2 0.19999999999999968 [dLambda -0.04999999999999999]
TCL: Setting parameter firsttimestep to 0
TCL: Setting parameter alchLambda to 0.24999999999999967
Info: NONBONDED TABLE R-SQUARED SPACING: 0.0625
Info: NONBONDED TABLE SIZE: 705 POINTS
TCL: Setting parameter alchLambda2 to 0.19999999999999968
Info: NONBONDED TABLE R-SQUARED SPACING: 0.0625
Info: NONBONDED TABLE SIZE: 705 POINTS
TCL: Running for 1500000 steps
ETITLE: TS BOND ANGLE DIHED IMPRP ELECT VDW BOUNDARY MISC KINETIC TOTAL TEMP POTENTIAL TOTALAVG TEMPAVG PRESSURE GPRESSURE VOLUME PRESSAVG GPRESSAVG
ENERGY: 0 3.2183 27.7783 6.6183 0.0000 -10453.6769 1435.6131 0.0000 0.0000 1737.1144 -7243.3345 299.0611 -8980.4489 -7243.3345 299.0611 231.2538 321.3360 30142.3934 231.2538 321.3360
ENERGY: 300000 2.2451 17.1968 4.5703 0.0000 -10369.5979 1337.4576 0.0000 0.0000 1772.1299 -7235.9982 305.0894 -9008.1281 -7234.8196 302.8363 -563.4834 -499.5370 30152.7263 -116.5867 -28.0273
ENERGY: 600000 4.4597 12.7372 7.8335 0.0000 -10337.7390 1287.2569 0.0000 0.0000 1723.1661 -7302.2855 296.6598 -9025.4516 -7279.9235 300.9317 -1074.3371 -1054.7168 30322.6836 -205.5799 -133.8777
ENERGY: 900000 7.0480 15.9578 8.6471 0.0000 -10520.4107 1441.1514 0.0000 0.0000 1754.2270 -7293.3795 302.0073 -9047.6065 -7300.3736 300.9013 116.3114 152.1619 29963.3289 -165.0118 -96.0258
ENERGY: 1200000 4.5043 13.1533 7.1907 0.0000 -10568.6873 1456.0350 0.0000 0.0000 1813.3151 -7274.4890 312.1798 -9087.8041 -7306.3409 301.1515 485.8907 535.0803 29692.5319 -9.7860 64.9915
ENERGY: 1500000 2.8608 14.7413 6.6945 0.0000 -10466.0194 1421.3437 0.0000 0.0000 1766.7064 -7253.6727 304.1557 -9020.3791 -7304.3472 302.0060 517.9276 521.0260 29596.6639 12.4492 74.0944
TCL: Running FEP window  17: Lambda1 0.19999999999999968 Lambda2 0.1499999999999997 [dLambda -0.04999999999999999]
TCL: Setting parameter firsttimestep to 0
TCL: Setting parameter alchLambda to 0.19999999999999968
Info: NONBONDED TABLE R-SQUARED SPACING: 0.0625
Info: NONBONDED TABLE SIZE: 705 POINTS
TCL: Setting parameter alchLambda2 to 0.1499999999999997
Info: NONBONDED TABLE R-SQUARED SPACING: 0.0625
Info: NONBONDED TABLE SIZE: 705 POINTS
TCL: Running for 1500000 steps
ETITLE: TS BOND ANGLE DIHED IMPRP ELECT VDW BOUNDARY MISC KINETIC TOTAL TEMP POTENTIAL TOTALAVG TEMPAVG PRESSURE GPRESSURE VOLUME PRESSAVG GPRESSAVG
ENERGY: 0 2.8608 14.7413 6.6945 0.0000 -10466.0188 1421.4172 0.0000 0.0000 1765.8248 -7254.4802 304.0039 -9020.3050 -7254.4802 304.0039 428.8237 514.9046 29596.6639 428.8237 514.9046
ENERGY: 300000 3.7581 16.6805 5.0412 0.0000 -10552.0123 1494.3720 0.0000 0.0000 1742.1201 -7290.0404 299.9229 -9032.1605 -7287.2134 297.6439 762.2661 770.1844 29465.9536 -99.2193 -66.2468
ENERGY: 600000 1.7353 14.8283 6.5692 0.0000 -10489.3710 1470.0676 0.0000 0.0000 1782.2368 -7213.9338 306.8294 -8996.1707 -7283.3624 299.8351 318.4554 437.9681 30374.6953 31.8585 75.7564
ENERGY: 900000 5.8523 19.9157 5.3215 0.0000 -10480.0065 1371.4531 0.0000 0.0000 1755.7562 -7321.7077 302.2705 -9077.4639 -7291.6862 300.2711 -302.2878 -211.3230 29606.5397 -90.5849 -41.8236
ENERGY: 1200000 2.3652 7.7520 5.4275 0.0000 -10558.1998 1391.3116 0.0000 0.0000 1777.9830 -7373.3603 306.0971 -9151.3434 -7292.3110 301.2769 -482.7978 -388.7623 29816.1616 -155.9993 -95.8196
ENERGY: 1500000 5.3403 18.2318 7.0425 0.0000 -10511.3246 1416.7359 0.0000 0.0000 1753.2761 -7310.6981 301.8435 -9063.9741 -7297.3599 300.9548 -293.7345 -271.6645 30139.6199 -282.4027 -222.7982
TCL: Running FEP window  18: Lambda1 0.1499999999999997 Lambda2 0.09999999999999969 [dLambda -0.05 ]
TCL: Setting parameter firsttimestep to 0
TCL: Setting parameter alchLambda to 0.1499999999999997
Info: NONBONDED TABLE R-SQUARED SPACING: 0.0625
Info: NONBONDED TABLE SIZE: 705 POINTS
TCL: Setting parameter alchLambda2 to 0.09999999999999969
Info: NONBONDED TABLE R-SQUARED SPACING: 0.0625
Info: NONBONDED TABLE SIZE: 705 POINTS
TCL: Running for 1500000 steps
ETITLE: TS BOND ANGLE DIHED IMPRP ELECT VDW BOUNDARY MISC KINETIC TOTAL TEMP POTENTIAL TOTALAVG TEMPAVG PRESSURE GPRESSURE VOLUME PRESSAVG GPRESSAVG
ENERGY: 0 5.3403 18.2318 7.0425 0.0000 -10511.3241 1416.1297 0.0000 0.0000 1752.4575 -7312.1224 301.7026 -9064.5799 -7312.1224 301.7026 -363.7923 -278.3064 30139.6199 -363.7923 -278.3064
ENERGY: 300000 4.0421 17.2517 6.5266 0.0000 -10618.5424 1485.8284 0.0000 0.0000 1756.1636 -7348.7300 302.3406 -9104.8935 -7292.5292 301.7621 558.2389 606.0366 29368.8743 -78.4030 -11.5183
ENERGY: 600000 2.7353 13.6288 6.5037 0.0000 -10407.1970 1393.5245 0.0000 0.0000 1672.1326 -7318.6720 287.8739 -8990.8046 -7289.9196 300.9984 -374.8633 -296.1204 30564.8808 163.6069 233.2678
ENERGY: 900000 2.5570 16.3782 7.3387 0.0000 -10465.2074 1451.9962 0.0000 0.0000 1737.3087 -7249.6285 299.0946 -8986.9371 -7288.8463 301.6759 464.9402 582.1196 29730.9700 156.5341 233.4337
ENERGY: 1200000 3.4243 15.8094 5.5240 0.0000 -10511.6095 1359.6517 0.0000 0.0000 1767.0508 -7360.1493 304.2150 -9127.2001 -7316.1128 300.4582 -422.8656 -415.6520 29623.3040 90.5701 158.3639
ENERGY: 1500000 2.3773 14.6180 5.7716 0.0000 -10510.0095 1434.9735 0.0000 0.0000 1747.0000 -7305.2690 300.7630 -9052.2690 -7318.3980 300.0980 69.3486 146.3744 29911.9992 98.5731 164.2843
TCL: Running FEP window  19: Lambda1 0.09999999999999969 Lambda2 0.049999999999999684 [dLambda -0.05 ]
TCL: Setting parameter firsttimestep to 0
TCL: Setting parameter alchLambda to 0.09999999999999969
Info: NONBONDED TABLE R-SQUARED SPACING: 0.0625
Info: NONBONDED TABLE SIZE: 705 POINTS
TCL: Setting parameter alchLambda2 to 0.049999999999999684
Info: NONBONDED TABLE R-SQUARED SPACING: 0.0625
Info: NONBONDED TABLE SIZE: 705 POINTS
TCL: Running for 1500000 steps
ETITLE: TS BOND ANGLE DIHED IMPRP ELECT VDW BOUNDARY MISC KINETIC TOTAL TEMP POTENTIAL TOTALAVG TEMPAVG PRESSURE GPRESSURE VOLUME PRESSAVG GPRESSAVG
ENERGY: 0 2.3773 14.6180 5.7716 0.0000 -10510.0091 1435.3872 0.0000 0.0000 1746.1874 -7305.6675 300.6232 -9051.8549 -7305.6675 300.6232 64.6648 141.8146 29911.9992 64.6648 141.8146
ENERGY: 300000 3.0765 16.6908 7.1377 0.0000 -10380.8937 1354.0552 0.0000 0.0000 1681.5185 -7318.4151 289.4898 -8999.9336 -7345.1603 296.7077 -761.7195 -696.1479 30703.6677 -158.7101 -79.6713
ENERGY: 600000 1.5380 16.1550 6.1893 0.0000 -10460.4838 1328.8562 0.0000 0.0000 1758.2458 -7349.4994 302.6991 -9107.7452 -7345.3575 297.3793 -690.2094 -667.8519 29744.4733 -372.5906 -303.1095
ENERGY: 900000 2.4008 14.3333 6.8745 0.0000 -10418.0155 1397.9359 0.0000 0.0000 1740.3289 -7256.1421 299.6145 -8996.4709 -7335.5300 297.9061 173.8998 186.9495 29474.8905 -336.8847 -273.7296
ENERGY: 1200000 1.9554 14.3767 6.5701 0.0000 -10574.7644 1449.4706 0.0000 0.0000 1801.0987 -7301.2929 310.0767 -9102.3916 -7329.4850 299.2419 268.9348 344.7338 29842.1566 -190.6705 -126.0774
ENERGY: 1500000 1.7127 11.4470 4.9556 0.0000 -10481.6934 1435.2197 0.0000 0.0000 1732.3704 -7295.9881 298.2444 -9028.3584 -7327.9265 299.0832 -10.2741 66.2236 29939.9935 -177.1124 -112.4314
TCL: Running FEP window  20: Lambda1 0.049999999999999684 Lambda2 0.0    [dLambda -0.049999999999999684]
TCL: Setting parameter firsttimestep to 0
TCL: Setting parameter alchLambda to 0.049999999999999684
Info: NONBONDED TABLE R-SQUARED SPACING: 0.0625
Info: NONBONDED TABLE SIZE: 705 POINTS
TCL: Setting parameter alchLambda2 to 0.0
Info: NONBONDED TABLE R-SQUARED SPACING: 0.0625
Info: NONBONDED TABLE SIZE: 705 POINTS
TCL: Running for 1500000 steps
ETITLE: TS BOND ANGLE DIHED IMPRP ELECT VDW BOUNDARY MISC KINETIC TOTAL TEMP POTENTIAL TOTALAVG TEMPAVG PRESSURE GPRESSURE VOLUME PRESSAVG GPRESSAVG
ENERGY: 0 1.7127 11.4470 4.9556 0.0000 -10481.6942 1434.8529 0.0000 0.0000 1731.4933 -7297.2327 298.0934 -9028.7261 -7297.2327 298.0934 -28.6898 62.5528 29939.9935 -28.6898 62.5528
ENERGY: 300000 5.9301 15.5362 5.6028 0.0000 -10438.1453 1358.3272 0.0000 0.0000 1762.8853 -7289.8637 303.4979 -9052.7491 -7289.3841 299.9022 -539.4175 -501.8662 29867.5933 129.0792 207.5037
ENERGY: 600000 3.1211 16.7713 8.7458 0.0000 -10426.6931 1313.1501 0.0000 0.0000 1750.6265 -7334.2782 301.3874 -9084.9047 -7303.5466 300.6346 -1085.8877 -1008.1403 30080.7216 -128.7364 -52.0337
ENERGY: 900000 5.2711 18.1164 7.5700 0.0000 -10649.3034 1482.7484 0.0000 0.0000 1751.9326 -7383.6649 301.6123 -9135.5976 -7307.9827 300.4809 348.1760 391.0534 29677.7033 -0.5287 69.7101
ENERGY: 1200000 3.2395 16.5343 5.4937 0.0000 -10552.3538 1469.4515 0.0000 0.0000 1750.9557 -7306.6791 301.4441 -9057.6348 -7305.6235 301.2386 659.5542 758.6552 29553.8659 30.4889 100.6037
ENERGY: 1500000 1.3846 18.4061 8.3566 0.0000 -10409.9297 1359.3230 0.0000 0.0000 1738.2494 -7284.2100 299.2566 -9022.4595 -7310.3880 301.0607 -500.1306 -425.2444 29984.1289 21.5315 94.0992
TCL: Exiting due to exit command.
