Info: SIMULATION PARAMETERS:
Info: TIMESTEP               2
Info: NUMBER OF STEPS        0
Info: STEPS PER CYCLE        10
Info: PERIODIC CELL BASIS 1  31.4313 0 0
Info: PERIODIC CELL BASIS 2  0 34.6945 0
Info: PERIODIC CELL BASIS 3  0 0 28.255
Info: PERIODIC CELL CENTER   0 0 0
Info: WRAPPING WATERS AROUND PERIODIC BOUNDARIES ON OUTPUT.
Info: WRAPPING ALL CLUSTERS AROUND PERIODIC BOUNDARIES ON OUTPUT.
Info: FIRST LDB TIMESTEP     50
Info: LAST LDB TIMESTEP     -1
Info: HOM BACKGROUND SCALING 1
Info: PME BACKGROUND SCALING 1
Info: MIN ATOMS PER PATCH    40
Info: EMPTY PATCH LOAD       40 ATOMS
Info: VELOCITY FILE          mobley_4759887_equil.vel
Info: CENTER OF MASS MOVING INITIALLY? NO
Info: DIELECTRIC             1
Info: EXCLUDE                SCALED ONE-FOUR
Info: 1-4 ELECTROSTATICS SCALED BY 0.833333
Info: MODIFIED 1-4 VDW PARAMETERS WILL BE USED
Info: DCD FILENAME           mobley_4759887_prod.dcd
Info: DCD FREQUENCY          100000
Info: DCD FIRST STEP         100000
Info: DCD FILE WILL CONTAIN UNIT CELL DATA
Info: XST FILENAME           mobley_4759887_prod.xst
Info: XST FREQUENCY          100000
Info: NO VELOCITY DCD OUTPUT
Info: NO FORCE DCD OUTPUT
Info: OUTPUT FILENAME        mobley_4759887_prod
Info: BINARY OUTPUT FILES WILL BE USED
Info: RESTART FILENAME       mobley_4759887_prod.restart
Info: RESTART FREQUENCY      100000
Info: BINARY RESTART FILES WILL BE USED
Info: CUTOFF                 9
Info: PAIRLIST DISTANCE      11
Info: PAIRLIST SHRINK RATE   0.01
Info: PAIRLIST GROW RATE     0.01
Info: PAIRLIST TRIGGER       0.3
Info: PAIRLISTS PER CYCLE    2
Info: PAIRLISTS ENABLED
Info: MARGIN                 2
Info: HYDROGEN GROUP CUTOFF  2.5
Info: PATCH DIMENSION        15.5
Info: ENERGY OUTPUT STEPS    100000
Info: ENERGY EVALUATION STEPS    100000
Info: OUTPUT ENERGY PRECISION 4
Info: CROSSTERM ENERGY INCLUDED IN DIHEDRAL
Info: TIMING OUTPUT STEPS    1000000
Info: PRESSURE OUTPUT STEPS  100000
Info: ALCHEMICAL FEP ON
Info: FEP CURRENT LAMBDA VALUE     1
Info: FEP COMPARISON LAMBDA VALUE  0.95
Info: FEP INTRA-ALCHEMICAL NON-BONDED INTERACTIONS WILL BE RETAINED
Info: FEP INTRA-ALCHEMICAL BONDED INTERACTIONS WILL BE RETAINED
Info: FEP VDW SHIFTING COEFFICIENT 5
Info: FEP ELEC. ACTIVE FOR ANNIHILATED PARTICLES BETWEEN LAMBDA = 0 AND LAMBDA = 0.5
Info: FEP ELEC. ACTIVE FOR EXNIHILATED PARTICLES BETWEEN LAMBDA = 0.5 AND LAMBDA = 1
Info: FEP VDW ACTIVE FOR ANNIHILATED PARTICLES BETWEEN LAMBDA = 0 AND LAMBDA = 1
Info: FEP VDW ACTIVE FOR EXNIHILATED PARTICLES BETWEEN LAMBDA = 0 AND LAMBDA = 1
Info: FEP BOND ACTIVE FOR ANNIHILATED PARTICLES BETWEEN LAMBDA = 1 AND LAMBDA = 1
Info: FEP BOND ACTIVE FOR EXNIHILATED PARTICLES BETWEEN LAMBDA = 0 AND LAMBDA = 0
Info: LANGEVIN DYNAMICS ACTIVE
Info: LANGEVIN TEMPERATURE   300
Info: LANGEVIN USING BBK INTEGRATOR
Info: LANGEVIN DAMPING COEFFICIENT IS 1 INVERSE PS
Info: LANGEVIN DYNAMICS APPLIED TO HYDROGENS
Info: LANGEVIN PISTON PRESSURE CONTROL ACTIVE
Info:        TARGET PRESSURE IS 1.01325 BAR
Info:     OSCILLATION PERIOD IS 50 FS
Info:             DECAY TIME IS 25 FS
Info:     PISTON TEMPERATURE IS 300 K
Info:       PRESSURE CONTROL IS GROUP-BASED
Info:    INITIAL STRAIN RATE IS 0.000471939 0.000471939 0.000471939
Info:       CELL FLUCTUATION IS ISOTROPIC
Info: PARTICLE MESH EWALD (PME) ACTIVE
Info: PME TOLERANCE               1e-06
Info: PME EWALD COEFFICIENT       0.348832
Info: PME INTERPOLATION ORDER     4
Info: PME GRID DIMENSIONS         32 36 32
Info: PME MAXIMUM GRID SPACING    1
Info: PME CALCULATION WILL BE PERFORMED ON GPU
Info: FULL ELECTROSTATIC EVALUATION FREQUENCY      2
Info: USING VERLET I (r-RESPA) MTS SCHEME.
Info: C1 SPLITTING OF LONG RANGE ELECTROSTATICS
Info: PLACING ATOMS IN PATCHES BY HYDROGEN GROUPS
Info: RIGID BONDS TO HYDROGEN : ALL
Info:         ERROR TOLERANCE : 1e-08
Info:          MAX ITERATIONS : 100
Info: RIGID WATER USING SETTLE ALGORITHM
Info: RANDOM NUMBER SEED     1744011784
Info: USE HYDROGEN BONDS?    NO
Info: Using AMBER format force field!
Info: AMBER PARM FILE        mobley_4759887.prmtop
Info: COORDINATE PDB         mobley_4759887.pdb
Info: Exclusions will be read from PARM file!
Info: SCNB (VDW SCALING)     2
Info: USING ARITHMETIC MEAN TO COMBINE L-J SIGMA PARAMETERS
Info: BINARY COORDINATES     mobley_4759887_equil.coor
Info: SUMMARY OF PARAMETERS:
Info: 6 BONDS
Info: 7 ANGLES
Info:   7 HARMONIC
Info:   0 COSINE-BASED
Info: 6 DIHEDRAL
Info: 0 IMPROPER
Info: 0 CROSSTERM
Info: 0 VDW
Info: 21 VDW_PAIRS
Info: 0 NBTHOLE_PAIRS
Info: To read alchdata from file: mobley_4759887.pdb
Info: To read alchflag data from column: 5
Info: STRUCTURE SUMMARY:
Info: 2960 ATOMS
Info: 2959 BONDS
Info: 42 ANGLES
Info: 62 DIHEDRALS
Info: 0 IMPROPERS
Info: 0 CROSSTERMS
Info: 3055 EXCLUSIONS
Info: 2952 RIGID BONDS
Info: ALCH: 0 ATOMS TO DISAPPEAR IN FINAL STATE
Info: ALCH: 23 ATOMS TO APPEAR IN FINAL STATE
Info: 5928 DEGREES OF FREEDOM
Info: 987 HYDROGEN GROUPS
Info: 4 ATOMS IN LARGEST HYDROGEN GROUP
Info: 987 MIGRATION GROUPS
Info: 4 ATOMS IN LARGEST MIGRATION GROUP
Info: TOTAL MASS = 17863.8 amu
Info: TOTAL CHARGE = 3.72529e-09 e
Info: MASS DENSITY = 0.962751 g/cm^3
Info: ATOM DENSITY = 0.0960669 atoms/A^3
Info: ADDED 0 IMPLICIT EXCLUSIONS
Info: NONBONDED TABLE R-SQUARED SPACING: 0.0625
Info: NONBONDED TABLE SIZE: 705 POINTS
Info: REDUCING NUMBER OF PATCHES TO IMPROVE LOAD BALANCE
Info: REMOVING COM VELOCITY -0.0163297 0.0312003 0.105372
Info: Use 3D box decompostion in PME FFT.
Info: Updated CUDA force table with 4096 elements.
Info: Updated CUDA LJ table with 6 x 6 elements.
Info: Found 26 unique exclusion lists needing 84 bytes
TCL: Running for 1500000 steps
ETITLE: TS BOND ANGLE DIHED IMPRP ELECT VDW BOUNDARY MISC KINETIC TOTAL TEMP POTENTIAL TOTALAVG TEMPAVG PRESSURE GPRESSURE VOLUME PRESSAVG GPRESSAVG
ENERGY: 0 1.4725 6.8314 3.3377 0.0000 -10607.1055 1391.9862 0.0000 0.0000 1740.1405 -7463.3371 295.4381 -9203.4776 -7463.3371 295.4381 -413.0504 -336.8366 30811.8558 -413.0504 -336.8366
ENERGY: 300000 1.1357 9.8143 6.1605 0.0000 -10648.5077 1441.6189 0.0000 0.0000 1805.8460 -7383.9322 306.5935 -9189.7782 -7418.9706 302.4661 223.6505 271.5286 30664.0260 -206.2330 -158.2531
ENERGY: 600000 0.5360 13.3943 2.6231 0.0000 -10666.8748 1378.4785 0.0000 0.0000 1820.1179 -7451.7249 309.0165 -9271.8428 -7452.4474 302.1869 -279.6410 -230.1392 30347.0627 -157.4373 -107.0706
ENERGY: 900000 3.1557 11.2872 3.2000 0.0000 -10617.0434 1428.1847 0.0000 0.0000 1783.9456 -7387.2701 302.8753 -9171.2157 -7450.5213 302.3449 255.7211 299.8092 30382.5411 -38.1824 21.4284
ENERGY: 1200000 2.6137 11.6203 5.2899 0.0000 -10532.4511 1367.5956 0.0000 0.0000 1746.0967 -7399.2349 296.4493 -9145.3316 -7457.5901 301.1536 -478.9845 -382.4226 30921.3616 -181.3042 -120.1931
ENERGY: 1500000 2.6955 14.5164 2.8919 0.0000 -10668.3263 1423.3226 0.0000 0.0000 1702.7888 -7522.1113 289.0966 -9224.9000 -7459.9549 300.6164 -59.8159 38.5409 30561.5959 -187.1298 -124.3372
TCL: Running FEP window   2: Lambda1 0.95   Lambda2 0.8999999999999999 [dLambda -0.050000000000000044]
TCL: Setting parameter firsttimestep to 0
TCL: Setting parameter alchLambda to 0.95
Info: NONBONDED TABLE R-SQUARED SPACING: 0.0625
Info: NONBONDED TABLE SIZE: 705 POINTS
TCL: Setting parameter alchLambda2 to 0.8999999999999999
Info: NONBONDED TABLE R-SQUARED SPACING: 0.0625
Info: NONBONDED TABLE SIZE: 705 POINTS
TCL: Running for 1500000 steps
ETITLE: TS BOND ANGLE DIHED IMPRP ELECT VDW BOUNDARY MISC KINETIC TOTAL TEMP POTENTIAL TOTALAVG TEMPAVG PRESSURE GPRESSURE VOLUME PRESSAVG GPRESSAVG
ENERGY: 0 2.6955 14.5164 2.8919 0.0000 -10668.0897 1423.3027 0.0000 0.0000 1701.9004 -7522.7829 288.9458 -9224.6834 -7522.7829 288.9458 -69.2751 18.8854 30561.5959 -69.2751 18.8854
ENERGY: 300000 0.2709 14.2306 2.4080 0.0000 -10568.5659 1271.9769 0.0000 0.0000 1707.9160 -7571.7635 289.9671 -9279.6795 -7502.5708 296.1254 -1535.0476 -1493.7157 30967.3740 -393.1502 -336.0426
ENERGY: 600000 0.5618 15.8331 4.9071 0.0000 -10687.7138 1434.2649 0.0000 0.0000 1776.2771 -7455.8698 301.5733 -9232.1469 -7502.5732 297.8279 179.9283 229.0733 30330.7545 -115.9796 -44.7844
ENERGY: 900000 2.4339 13.7224 2.1619 0.0000 -10676.2368 1415.1661 0.0000 0.0000 1744.4915 -7498.2610 296.1768 -9242.7525 -7502.6938 297.4171 -237.5033 -170.0412 30733.1723 -242.1933 -182.1445
ENERGY: 1200000 1.4743 11.2553 4.7988 0.0000 -10655.5539 1448.6514 0.0000 0.0000 1772.6760 -7416.6982 300.9619 -9189.3742 -7494.0018 297.9504 279.9177 411.5921 30528.3063 -243.9658 -176.0786
ENERGY: 1500000 2.2664 9.1385 6.1217 0.0000 -10639.4767 1395.7893 0.0000 0.0000 1748.1200 -7478.0408 296.7928 -9226.1608 -7490.0316 298.0729 -160.5822 -116.7593 30077.4369 -188.6837 -128.3189
TCL: Running FEP window   3: Lambda1 0.8999999999999999 Lambda2 0.8499999999999999 [dLambda -0.050000000000000044]
TCL: Setting parameter firsttimestep to 0
TCL: Setting parameter alchLambda to 0.8999999999999999
Info: NONBONDED TABLE R-SQUARED SPACING: 0.0625
Info: NONBONDED TABLE SIZE: 705 POINTS
TCL: Setting parameter alchLambda2 to 0.8499999999999999
Info: NONBONDED TABLE R-SQUARED SPACING: 0.0625
Info: NONBONDED TABLE SIZE: 705 POINTS
TCL: Running for 1500000 steps
ETITLE: TS BOND ANGLE DIHED IMPRP ELECT VDW BOUNDARY MISC KINETIC TOTAL TEMP POTENTIAL TOTALAVG TEMPAVG PRESSURE GPRESSURE VOLUME PRESSAVG GPRESSAVG
ENERGY: 0 2.2664 9.1385 6.1217 0.0000 -10639.3942 1396.3148 0.0000 0.0000 1747.2594 -7478.2934 296.6467 -9225.5528 -7478.2934 296.6467 -204.7711 -121.2705 30077.4369 -204.7711 -121.2705
ENERGY: 300000 1.5920 9.8531 3.6140 0.0000 -10815.1042 1471.7441 0.0000 0.0000 1716.9197 -7611.3813 291.4957 -9328.3010 -7469.0922 297.6682 -195.2482 -86.9078 30647.1867 -330.5712 -226.3821
ENERGY: 600000 1.4134 11.6800 2.6104 0.0000 -10571.0126 1422.3230 0.0000 0.0000 1784.7903 -7348.1955 303.0187 -9132.9858 -7433.4778 300.4876 61.0895 137.9435 30944.8518 -141.8993 -57.3368
ENERGY: 900000 1.3578 12.6860 4.4400 0.0000 -10693.8907 1363.9562 0.0000 0.0000 1754.6665 -7556.7843 297.9043 -9311.4508 -7470.9960 299.1318 -602.1780 -543.0439 30163.2150 -58.1425 26.9743
ENERGY: 1200000 3.0464 11.3145 3.3936 0.0000 -10693.2599 1449.3122 0.0000 0.0000 1805.3665 -7420.8267 306.5121 -9226.1932 -7455.2102 300.6213 181.1317 240.1197 30408.7314 14.6487 96.9181
ENERGY: 1500000 1.7657 11.8571 4.2371 0.0000 -10653.4970 1438.6308 0.0000 0.0000 1729.6771 -7467.3292 293.6616 -9197.0063 -7458.3296 300.3008 97.5446 151.5289 30757.7823 33.5132 107.8380
TCL: Running FEP window   4: Lambda1 0.8499999999999999 Lambda2 0.7999999999999998 [dLambda -0.050000000000000044]
TCL: Setting parameter firsttimestep to 0
TCL: Setting parameter alchLambda to 0.8499999999999999
Info: NONBONDED TABLE R-SQUARED SPACING: 0.0625
Info: NONBONDED TABLE SIZE: 705 POINTS
TCL: Setting parameter alchLambda2 to 0.7999999999999998
Info: NONBONDED TABLE R-SQUARED SPACING: 0.0625
Info: NONBONDED TABLE SIZE: 705 POINTS
TCL: Running for 1500000 steps
ETITLE: TS BOND ANGLE DIHED IMPRP ELECT VDW BOUNDARY MISC KINETIC TOTAL TEMP POTENTIAL TOTALAVG TEMPAVG PRESSURE GPRESSURE VOLUME PRESSAVG GPRESSAVG
ENERGY: 0 1.7657 11.8571 4.2371 0.0000 -10653.4847 1439.1638 0.0000 0.0000 1728.7840 -7467.6771 293.5100 -9196.4611 -7467.6771 293.5100 72.8068 147.3365 30757.7823 72.8068 147.3365
ENERGY: 300000 3.4903 10.8849 3.5950 0.0000 -10522.7632 1334.4358 0.0000 0.0000 1739.7040 -7430.6533 295.3640 -9170.3573 -7471.8644 298.5278 -867.9502 -824.2656 31241.2102 -127.1543 -62.6465
ENERGY: 600000 3.9434 5.5673 2.8511 0.0000 -10641.9348 1418.2315 0.0000 0.0000 1745.8004 -7465.5411 296.3990 -9211.3415 -7465.9450 300.1994 -108.5150 -99.5469 30398.7416 -98.0637 -39.3595
ENERGY: 900000 1.5434 8.0527 2.3920 0.0000 -10739.2903 1524.7765 0.0000 0.0000 1730.5851 -7471.9407 293.8158 -9202.5258 -7472.1288 299.8025 867.3659 953.0049 30354.6006 -7.2020 45.0699
ENERGY: 1200000 4.1914 10.7090 3.0236 0.0000 -10572.7214 1394.4900 0.0000 0.0000 1754.2002 -7406.1072 297.8251 -9160.3074 -7468.4772 299.6246 -324.0201 -272.9312 30893.9045 1.7606 52.4485
ENERGY: 1500000 2.7013 11.5886 4.8331 0.0000 -10683.9536 1438.9285 0.0000 0.0000 1751.6158 -7474.2864 297.3864 -9225.9022 -7474.9812 299.6562 -137.7973 -151.0378 30911.4336 51.6360 103.0846
TCL: Running FEP window   5: Lambda1 0.7999999999999998 Lambda2 0.7499999999999998 [dLambda -0.050000000000000044]
TCL: Setting parameter firsttimestep to 0
TCL: Setting parameter alchLambda to 0.7999999999999998
Info: NONBONDED TABLE R-SQUARED SPACING: 0.0625
Info: NONBONDED TABLE SIZE: 705 POINTS
TCL: Setting parameter alchLambda2 to 0.7499999999999998
Info: NONBONDED TABLE R-SQUARED SPACING: 0.0625
Info: NONBONDED TABLE SIZE: 705 POINTS
TCL: Running for 1500000 steps
ETITLE: TS BOND ANGLE DIHED IMPRP ELECT VDW BOUNDARY MISC KINETIC TOTAL TEMP POTENTIAL TOTALAVG TEMPAVG PRESSURE GPRESSURE VOLUME PRESSAVG GPRESSAVG
ENERGY: 0 2.7013 11.5886 4.8331 0.0000 -10683.6144 1439.3792 0.0000 0.0000 1750.7227 -7474.3894 297.2347 -9225.1121 -7474.3894 297.2347 -248.0077 -161.1244 30911.4336 -248.0077 -161.1244
ENERGY: 300000 1.6664 8.6894 4.0230 0.0000 -10801.1117 1539.2967 0.0000 0.0000 1784.5895 -7462.8467 302.9846 -9247.4361 -7436.3218 303.1462 733.1788 772.9389 30318.9907 119.1374 193.2738
ENERGY: 600000 2.2126 13.0298 4.9859 0.0000 -10718.1691 1457.8696 0.0000 0.0000 1761.4590 -7478.6122 299.0575 -9240.0713 -7461.9100 300.5426 109.0071 164.1177 30482.1705 -64.4540 7.5343
ENERGY: 900000 0.8879 7.5252 2.5398 0.0000 -10623.4835 1417.7072 0.0000 0.0000 1795.3339 -7399.4897 304.8087 -9194.8235 -7472.5177 300.3738 -157.7366 -116.2893 30762.4100 -85.6954 -15.4451
ENERGY: 1200000 2.8776 15.1665 5.4780 0.0000 -10711.4774 1458.7668 0.0000 0.0000 1756.1869 -7473.0017 298.1624 -9229.1886 -7471.0206 300.1957 275.9427 277.7854 30552.3262 -107.9257 -42.2980
ENERGY: 1500000 3.6241 8.8859 2.2225 0.0000 -10662.2859 1443.4638 0.0000 0.0000 1731.0568 -7473.0327 293.8959 -9204.0895 -7467.4651 299.8359 222.6534 299.4433 30226.0242 -33.3292 29.8286
TCL: Running FEP window   6: Lambda1 0.7499999999999998 Lambda2 0.6999999999999997 [dLambda -0.050000000000000044]
TCL: Setting parameter firsttimestep to 0
TCL: Setting parameter alchLambda to 0.7499999999999998
Info: NONBONDED TABLE R-SQUARED SPACING: 0.0625
Info: NONBONDED TABLE SIZE: 705 POINTS
TCL: Setting parameter alchLambda2 to 0.6999999999999997
Info: NONBONDED TABLE R-SQUARED SPACING: 0.0625
Info: NONBONDED TABLE SIZE: 705 POINTS
TCL: Running for 1500000 steps
ETITLE: TS BOND ANGLE DIHED IMPRP ELECT VDW BOUNDARY MISC KINETIC TOTAL TEMP POTENTIAL TOTALAVG TEMPAVG PRESSURE GPRESSURE VOLUME PRESSAVG GPRESSAVG
ENERGY: 0 3.6241 8.8859 2.2225 0.0000 -10661.8239 1443.8949 0.0000 0.0000 1730.2077 -7472.9888 293.7517 -9203.1965 -7472.9888 293.7517 213.1461 290.0105 30226.0242 213.1461 290.0105
ENERGY: 300000 2.8031 12.3269 2.2718 0.0000 -10599.5350 1463.1452 0.0000 0.0000 1805.9028 -7313.0852 306.6031 -9118.9880 -7432.0653 300.2927 849.5832 897.5489 30320.2415 336.1696 393.7831
ENERGY: 600000 1.8993 7.1911 3.3918 0.0000 -10701.8312 1480.2246 0.0000 0.0000 1760.6551 -7448.4693 298.9210 -9209.1244 -7436.4667 299.7991 474.6165 492.4080 30519.1746 196.0639 265.4955
ENERGY: 900000 2.3401 8.9477 3.9482 0.0000 -10764.2366 1481.4041 0.0000 0.0000 1799.4230 -7468.1735 305.5030 -9267.5965 -7445.8597 299.5226 224.8452 283.1836 30196.0762 63.6649 129.1211
ENERGY: 1200000 0.8467 5.8506 3.7444 0.0000 -10483.4072 1309.9915 0.0000 0.0000 1826.1201 -7336.8538 310.0356 -9162.9739 -7435.2092 300.1842 -480.6039 -457.6071 30338.1016 -31.7658 23.5445
ENERGY: 1500000 1.5776 10.7876 3.3821 0.0000 -10717.1658 1427.7661 0.0000 0.0000 1783.2689 -7490.3836 302.7604 -9273.6525 -7447.2448 299.9760 21.5131 73.0608 30280.5480 -53.0450 1.6633
TCL: Running FEP window   7: Lambda1 0.6999999999999997 Lambda2 0.6499999999999997 [dLambda -0.050000000000000044]
TCL: Setting parameter firsttimestep to 0
TCL: Setting parameter alchLambda to 0.6999999999999997
Info: NONBONDED TABLE R-SQUARED SPACING: 0.0625
Info: NONBONDED TABLE SIZE: 705 POINTS
TCL: Setting parameter alchLambda2 to 0.6499999999999997
Info: NONBONDED TABLE R-SQUARED SPACING: 0.0625
Info: NONBONDED TABLE SIZE: 705 POINTS
TCL: Running for 1500000 steps
ETITLE: TS BOND ANGLE DIHED IMPRP ELECT VDW BOUNDARY MISC KINETIC TOTAL TEMP POTENTIAL TOTALAVG TEMPAVG PRESSURE GPRESSURE VOLUME PRESSAVG GPRESSAVG
ENERGY: 0 1.5776 10.7876 3.3821 0.0000 -10716.9010 1428.5559 0.0000 0.0000 1782.3953 -7490.2025 302.6121 -9272.5979 -7490.2025 302.6121 -6.1431 69.0003 30280.5480 -6.1431 69.0003
ENERGY: 300000 2.0892 8.6238 4.4237 0.0000 -10699.5051 1446.9101 0.0000 0.0000 1768.6238 -7468.8345 300.2739 -9237.4583 -7501.3339 299.4283 135.1839 220.7549 30416.7932 38.0033 92.1405
ENERGY: 600000 3.5439 10.3588 3.8447 0.0000 -10730.3221 1483.9047 0.0000 0.0000 1801.7715 -7426.8984 305.9017 -9228.6700 -7469.1245 300.9057 487.4051 531.5054 30347.1127 7.3476 64.6522
ENERGY: 900000 1.3211 12.4946 2.8548 0.0000 -10809.5346 1528.4693 0.0000 0.0000 1692.7072 -7571.6876 287.3850 -9264.3948 -7485.6678 298.8755 396.7722 448.5397 30715.1225 62.0598 116.8252
ENERGY: 1200000 2.6135 7.0925 4.5873 0.0000 -10740.9238 1473.1850 0.0000 0.0000 1765.2343 -7488.2113 299.6985 -9253.4456 -7485.7412 298.9915 324.6606 386.7159 30473.5241 80.2554 142.2953
ENERGY: 1500000 2.4134 11.5341 4.0673 0.0000 -10756.7175 1435.3374 0.0000 0.0000 1820.2464 -7483.1189 309.0383 -9303.3653 -7487.7020 299.6889 -276.6287 -313.2797 30860.0251 39.4930 92.6455
TCL: Running FEP window   8: Lambda1 0.6499999999999997 Lambda2 0.5999999999999996 [dLambda -0.050000000000000044]
TCL: Setting parameter firsttimestep to 0
TCL: Setting parameter alchLambda to 0.6499999999999997
Info: NONBONDED TABLE R-SQUARED SPACING: 0.0625
Info: NONBONDED TABLE SIZE: 705 POINTS
TCL: Setting parameter alchLambda2 to 0.5999999999999996
Info: NONBONDED TABLE R-SQUARED SPACING: 0.0625
Info: NONBONDED TABLE SIZE: 705 POINTS
TCL: Running for 1500000 steps
ETITLE: TS BOND ANGLE DIHED IMPRP ELECT VDW BOUNDARY MISC KINETIC TOTAL TEMP POTENTIAL TOTALAVG TEMPAVG PRESSURE GPRESSURE VOLUME PRESSAVG GPRESSAVG
ENERGY: 0 2.4134 11.5341 4.0673 0.0000 -10756.8261 1435.4926 0.0000 0.0000 1819.3883 -7483.9303 308.8927 -9303.3186 -7483.9303 308.8927 -404.7492 -322.1477 30860.0251 -404.7492 -322.1477
ENERGY: 300000 5.2300 8.0613 4.5394 0.0000 -10607.8968 1376.8189 0.0000 0.0000 1764.5334 -7448.7137 299.5795 -9213.2471 -7480.2112 303.0288 -324.6679 -230.7232 30218.4388 70.0925 156.6352
ENERGY: 600000 2.1381 16.3835 3.4670 0.0000 -10646.6146 1347.7256 0.0000 0.0000 1714.6179 -7562.2825 291.1049 -9276.9004 -7475.4299 302.2348 -726.6677 -679.5110 30371.7510 -245.3119 -182.2701
ENERGY: 900000 1.1728 9.0580 3.4313 0.0000 -10645.8053 1405.2808 0.0000 0.0000 1768.6236 -7458.2389 300.2739 -9226.8625 -7456.9766 303.2447 -217.2307 -174.0673 30331.4385 -295.8218 -240.5272
ENERGY: 1200000 1.6588 8.1600 3.6100 0.0000 -10676.2673 1455.1735 0.0000 0.0000 1757.3000 -7450.3650 298.3514 -9207.6651 -7451.1557 302.9957 214.1405 260.5440 30431.3183 -165.4759 -116.2733
ENERGY: 1500000 4.1340 12.6180 2.0932 0.0000 -10760.6131 1413.9060 0.0000 0.0000 1722.3531 -7605.5088 292.4182 -9327.8619 -7466.5926 301.6477 -655.8679 -565.6995 30630.7330 -215.2417 -162.4605
TCL: Running FEP window   9: Lambda1 0.5999999999999996 Lambda2 0.5499999999999996 [dLambda -0.050000000000000044]
TCL: Setting parameter firsttimestep to 0
TCL: Setting parameter alchLambda to 0.5999999999999996
Info: NONBONDED TABLE R-SQUARED SPACING: 0.0625
Info: NONBONDED TABLE SIZE: 705 POINTS
TCL: Setting parameter alchLambda2 to 0.5499999999999996
Info: NONBONDED TABLE R-SQUARED SPACING: 0.0625
Info: NONBONDED TABLE SIZE: 705 POINTS
TCL: Running for 1500000 steps
ETITLE: TS BOND ANGLE DIHED IMPRP ELECT VDW BOUNDARY MISC KINETIC TOTAL TEMP POTENTIAL TOTALAVG TEMPAVG PRESSURE GPRESSURE VOLUME PRESSAVG GPRESSAVG
ENERGY: 0 4.1340 12.6180 2.0932 0.0000 -10760.5061 1414.3639 0.0000 0.0000 1721.4690 -7605.8281 292.2681 -9327.2970 -7605.8281 292.2681 -649.7643 -572.1594 30630.7330 -649.7643 -572.1594
ENERGY: 300000 2.3123 9.0297 7.0429 0.0000 -10727.9800 1462.7839 0.0000 0.0000 1767.5871 -7479.2242 300.0979 -9246.8113 -7517.4436 297.4731 37.7310 151.1068 30408.5353 -251.2459 -148.7728
ENERGY: 600000 2.6020 7.4051 3.0274 0.0000 -10815.0323 1574.8187 0.0000 0.0000 1753.6220 -7473.5571 297.7270 -9227.1790 -7491.2073 299.8204 1042.1832 1150.9997 30450.9290 -75.9467 -2.0751
ENERGY: 900000 1.1511 16.9575 4.0798 0.0000 -10528.2788 1347.7034 0.0000 0.0000 1770.2523 -7388.1348 300.5504 -9158.3870 -7463.8120 300.9759 -552.4592 -495.0320 30850.1952 -6.3421 69.2150
ENERGY: 1200000 2.6805 8.2745 4.0664 0.0000 -10571.3980 1331.2516 0.0000 0.0000 1726.5776 -7498.5474 293.1354 -9225.1250 -7451.0963 300.8514 -1096.6758 -1006.6845 30922.1021 -59.0818 22.9316
ENERGY: 1500000 2.1443 7.8701 2.8206 0.0000 -10530.1473 1377.5044 0.0000 0.0000 1767.9322 -7371.8758 300.1565 -9139.8079 -7444.6553 301.3091 -298.5867 -211.0565 30600.8279 -108.8834 -27.8532
TCL: Running FEP window  10: Lambda1 0.5499999999999996 Lambda2 0.4999999999999996 [dLambda -0.04999999999999999]
TCL: Setting parameter firsttimestep to 0
TCL: Setting parameter alchLambda to 0.5499999999999996
Info: NONBONDED TABLE R-SQUARED SPACING: 0.0625
Info: NONBONDED TABLE SIZE: 705 POINTS
TCL: Setting parameter alchLambda2 to 0.4999999999999996
Info: NONBONDED TABLE R-SQUARED SPACING: 0.0625
Info: NONBONDED TABLE SIZE: 705 POINTS
TCL: Running for 1500000 steps
ETITLE: TS BOND ANGLE DIHED IMPRP ELECT VDW BOUNDARY MISC KINETIC TOTAL TEMP POTENTIAL TOTALAVG TEMPAVG PRESSURE GPRESSURE VOLUME PRESSAVG GPRESSAVG
ENERGY: 0 2.1443 7.8701 2.8206 0.0000 -10530.0525 1378.0005 0.0000 0.0000 1767.0301 -7372.1870 300.0034 -9139.2171 -7372.1870 300.0034 -289.6164 -217.1885 30600.8279 -289.6164 -217.1885
ENERGY: 300000 1.3213 10.1715 4.4901 0.0000 -10688.8611 1399.7672 0.0000 0.0000 1741.7102 -7531.4009 295.7046 -9273.1110 -7451.6646 300.3608 -584.3184 -527.3320 30733.0817 -15.1038 30.8752
ENERGY: 600000 1.0333 8.2698 3.7654 0.0000 -10537.3348 1336.7285 0.0000 0.0000 1729.8713 -7457.6665 293.6946 -9187.5378 -7470.0773 299.6481 -891.0673 -772.0522 30929.2218 -225.8250 -167.0275
ENERGY: 900000 2.7246 11.3320 5.8285 0.0000 -10559.0482 1384.0627 0.0000 0.0000 1773.3261 -7381.7743 301.0723 -9155.1003 -7442.5571 301.8468 -59.0331 16.2761 30182.3360 -284.4201 -220.1932
ENERGY: 1200000 1.0325 9.9732 3.2417 0.0000 -10727.2756 1422.6062 0.0000 0.0000 1744.7724 -7545.6496 296.2245 -9290.4220 -7459.5380 301.4321 -211.1813 -113.0572 30379.4408 -223.5351 -149.7216
ENERGY: 1500000 2.6182 8.7952 2.9961 0.0000 -10750.0530 1487.6427 0.0000 0.0000 1753.0026 -7494.9982 297.6218 -9248.0007 -7461.1971 300.9258 224.2493 235.6839 30620.7144 -155.5310 -90.1008
TCL: Running FEP window  11: Lambda1 0.4999999999999996 Lambda2 0.4499999999999996 [dLambda -0.04999999999999999]
TCL: Setting parameter firsttimestep to 0
TCL: Setting parameter alchLambda to 0.4999999999999996
Info: NONBONDED TABLE R-SQUARED SPACING: 0.0625
Info: NONBONDED TABLE SIZE: 705 POINTS
TCL: Setting parameter alchLambda2 to 0.4499999999999996
Info: NONBONDED TABLE R-SQUARED SPACING: 0.0625
Info: NONBONDED TABLE SIZE: 705 POINTS
TCL: Running for 1500000 steps
ETITLE: TS BOND ANGLE DIHED IMPRP ELECT VDW BOUNDARY MISC KINETIC TOTAL TEMP POTENTIAL TOTALAVG TEMPAVG PRESSURE GPRESSURE VOLUME PRESSAVG GPRESSAVG
ENERGY: 0 2.6182 8.7952 2.9961 0.0000 -10749.8469 1487.6094 0.0000 0.0000 1752.1001 -7495.7279 297.4686 -9247.8280 -7495.7279 297.4686 148.5372 225.3987 30620.7144 148.5372 225.3987
ENERGY: 300000 4.4532 8.3252 2.4939 0.0000 -10684.5216 1442.1257 0.0000 0.0000 1768.5886 -7458.5350 300.2680 -9227.1236 -7483.5905 300.6242 -60.1938 -1.6663 30699.2445 66.8719 155.9968
ENERGY: 600000 2.3099 15.8342 4.0257 0.0000 -10757.6688 1456.8445 0.0000 0.0000 1804.9837 -7473.6708 306.4471 -9278.6545 -7489.8597 300.2608 19.8344 197.2903 30077.1796 8.8032 107.8351
ENERGY: 900000 3.9651 8.6678 3.3850 0.0000 -10683.1579 1410.5718 0.0000 0.0000 1801.3714 -7455.1968 305.8338 -9256.5682 -7481.9089 300.2725 21.2845 55.3258 29983.6537 -147.2173 -65.4512
ENERGY: 1200000 3.5914 9.7775 4.4757 0.0000 -10688.5959 1492.1030 0.0000 0.0000 1780.0640 -7398.5843 302.2163 -9178.6484 -7480.8084 300.7466 289.4073 430.9679 30609.3313 -47.1836 39.1369
ENERGY: 1500000 3.5392 15.2392 4.2131 0.0000 -10705.4482 1430.7125 0.0000 0.0000 1728.1098 -7523.6345 293.3955 -9251.7442 -7479.8738 299.8224 -90.3816 -97.1590 30517.1905 -93.9077 -17.2569
TCL: Running FEP window  12: Lambda1 0.4499999999999996 Lambda2 0.39999999999999963 [dLambda -0.04999999999999999]
TCL: Setting parameter firsttimestep to 0
TCL: Setting parameter alchLambda to 0.4499999999999996
Info: NONBONDED TABLE R-SQUARED SPACING: 0.0625
Info: NONBONDED TABLE SIZE: 705 POINTS
TCL: Setting parameter alchLambda2 to 0.39999999999999963
Info: NONBONDED TABLE R-SQUARED SPACING: 0.0625
Info: NONBONDED TABLE SIZE: 705 POINTS
TCL: Running for 1500000 steps
ETITLE: TS BOND ANGLE DIHED IMPRP ELECT VDW BOUNDARY MISC KINETIC TOTAL TEMP POTENTIAL TOTALAVG TEMPAVG PRESSURE GPRESSURE VOLUME PRESSAVG GPRESSAVG
ENERGY: 0 3.5392 15.2392 4.2131 0.0000 -10705.4485 1431.1509 0.0000 0.0000 1727.2477 -7524.0584 293.2492 -9251.3061 -7524.0584 293.2492 -187.4695 -99.4560 30517.1905 -187.4695 -99.4560
ENERGY: 300000 5.2139 13.0460 2.3177 0.0000 -10578.4015 1345.2277 0.0000 0.0000 1721.1876 -7491.4086 292.2203 -9212.5962 -7490.2721 295.4747 -646.8189 -586.8099 30637.6752 183.0776 248.0967
ENERGY: 600000 1.0784 12.5100 2.8659 0.0000 -10628.6885 1386.3618 0.0000 0.0000 1764.9894 -7460.8831 299.6569 -9225.8725 -7469.2723 296.9987 -520.2585 -426.9657 30459.1256 -59.7350 6.7569
ENERGY: 900000 2.3639 10.5984 3.4530 0.0000 -10747.9624 1506.3685 0.0000 0.0000 1757.2608 -7467.9178 298.3448 -9225.1786 -7475.7151 298.1800 713.1740 764.9221 30159.6242 -54.5621 8.2134
ENERGY: 1200000 2.9131 8.3117 2.5262 0.0000 -10776.0708 1478.5371 0.0000 0.0000 1769.4130 -7514.3697 300.4079 -9283.7827 -7479.6254 298.4410 43.1813 129.0872 30362.7578 -74.7780 -9.5684
ENERGY: 1500000 3.1734 9.2409 3.2886 0.0000 -10802.7467 1491.8200 0.0000 0.0000 1745.2857 -7549.9382 296.3116 -9295.2239 -7489.4731 297.6932 82.9853 211.4697 30368.7753 -21.4806 42.8872
TCL: Running FEP window  13: Lambda1 0.39999999999999963 Lambda2 0.34999999999999964 [dLambda -0.04999999999999999]
TCL: Setting parameter firsttimestep to 0
TCL: Setting parameter alchLambda to 0.39999999999999963
Info: NONBONDED TABLE R-SQUARED SPACING: 0.0625
Info: NONBONDED TABLE SIZE: 705 POINTS
TCL: Setting parameter alchLambda2 to 0.34999999999999964
Info: NONBONDED TABLE R-SQUARED SPACING: 0.0625
Info: NONBONDED TABLE SIZE: 705 POINTS
TCL: Running for 1500000 steps
ETITLE: TS BOND ANGLE DIHED IMPRP ELECT VDW BOUNDARY MISC KINETIC TOTAL TEMP POTENTIAL TOTALAVG TEMPAVG PRESSURE GPRESSURE VOLUME PRESSAVG GPRESSAVG
ENERGY: 0 3.1734 9.2409 3.2886 0.0000 -10802.7465 1492.1658 0.0000 0.0000 1744.3895 -7550.4883 296.1595 -9294.8778 -7550.4883 296.1595 138.3920 208.3981 30368.7753 138.3920 208.3981
ENERGY: 300000 2.3477 12.9120 3.9301 0.0000 -10763.3906 1486.6540 0.0000 0.0000 1763.8176 -7493.7292 299.4580 -9257.5467 -7475.8013 298.8041 351.4116 442.2706 30316.2245 -144.2608 -87.7599
ENERGY: 600000 2.7757 8.2582 4.2183 0.0000 -10572.6836 1363.7623 0.0000 0.0000 1786.3370 -7407.3321 303.2813 -9193.6691 -7453.4610 299.7265 -838.2600 -747.8829 31006.3616 -144.7239 -79.7939
ENERGY: 900000 2.6373 10.3325 2.1182 0.0000 -10662.1367 1405.2925 0.0000 0.0000 1753.6521 -7488.1040 297.7321 -9241.7561 -7462.0951 298.3242 -301.2178 -262.1431 30217.4925 -154.9217 -96.4336
ENERGY: 1200000 3.8193 10.7409 3.5141 0.0000 -10429.8956 1276.2532 0.0000 0.0000 1796.6195 -7338.9486 305.0270 -9135.5681 -7457.0250 298.6960 -994.4440 -928.6901 30655.3271 -144.8749 -85.7922
ENERGY: 1500000 3.1650 13.2254 3.3996 0.0000 -10781.3575 1486.2648 0.0000 0.0000 1772.9934 -7502.3094 301.0158 -9275.3027 -7471.3201 299.1001 14.5635 77.9406 30575.9394 -104.6881 -44.2942
TCL: Running FEP window  14: Lambda1 0.34999999999999964 Lambda2 0.29999999999999966 [dLambda -0.04999999999999999]
TCL: Setting parameter firsttimestep to 0
TCL: Setting parameter alchLambda to 0.34999999999999964
Info: NONBONDED TABLE R-SQUARED SPACING: 0.0625
Info: NONBONDED TABLE SIZE: 705 POINTS
TCL: Setting parameter alchLambda2 to 0.29999999999999966
Info: NONBONDED TABLE R-SQUARED SPACING: 0.0625
Info: NONBONDED TABLE SIZE: 705 POINTS
TCL: Running for 1500000 steps
ETITLE: TS BOND ANGLE DIHED IMPRP ELECT VDW BOUNDARY MISC KINETIC TOTAL TEMP POTENTIAL TOTALAVG TEMPAVG PRESSURE GPRESSURE VOLUME PRESSAVG GPRESSAVG
ENERGY: 0 3.1650 13.2254 3.3996 0.0000 -10781.3567 1487.1174 0.0000 0.0000 1772.1096 -7502.3397 300.8658 -9274.4494 -7502.3397 300.8658 -16.5450 75.3452 30575.9394 -16.5450 75.3452
ENERGY: 300000 2.3647 8.1110 3.7979 0.0000 -10668.6111 1453.2101 0.0000 0.0000 1731.3118 -7469.8156 293.9392 -9201.1274 -7477.1654 301.0073 -64.1501 -22.5912 30901.3542 -93.3342 -40.9875
ENERGY: 600000 2.0175 10.1537 2.4302 0.0000 -10707.8664 1483.9744 0.0000 0.0000 1720.9160 -7488.3746 292.1742 -9209.2906 -7465.8592 300.8767 729.9577 759.2971 29683.1930 191.5745 235.6738
ENERGY: 900000 2.3413 11.9270 3.6224 0.0000 -10778.5831 1456.9089 0.0000 0.0000 1736.4416 -7567.3419 294.8101 -9303.7835 -7484.3430 298.8106 48.7930 98.1640 30271.7551 122.2052 160.7046
ENERGY: 1200000 3.0798 12.5090 4.2229 0.0000 -10659.1396 1372.5706 0.0000 0.0000 1744.2495 -7522.5078 296.1357 -9266.7573 -7486.4283 298.5225 -534.4681 -492.3816 30324.4087 126.7058 165.0686
ENERGY: 1500000 2.6868 7.1687 6.1433 0.0000 -10554.5277 1350.3732 0.0000 0.0000 1757.1496 -7431.0062 298.3259 -9188.1558 -7479.6338 299.2739 -850.1710 -722.4071 30562.6664 24.9689 69.7116
TCL: Running FEP window  15: Lambda1 0.29999999999999966 Lambda2 0.24999999999999967 [dLambda -0.04999999999999999]
TCL: Setting parameter firsttimestep to 0
TCL: Setting parameter alchLambda to 0.29999999999999966
Info: NONBONDED TABLE R-SQUARED SPACING: 0.0625
Info: NONBONDED TABLE SIZE: 705 POINTS
TCL: Setting parameter alchLambda2 to 0.24999999999999967
Info: NONBONDED TABLE R-SQUARED SPACING: 0.0625
Info: NONBONDED TABLE SIZE: 705 POINTS
TCL: Running for 1500000 steps
ETITLE: TS BOND ANGLE DIHED IMPRP ELECT VDW BOUNDARY MISC KINETIC TOTAL TEMP POTENTIAL TOTALAVG TEMPAVG PRESSURE GPRESSURE VOLUME PRESSAVG GPRESSAVG
ENERGY: 0 2.6868 7.1687 6.1433 0.0000 -10554.5274 1351.1638 0.0000 0.0000 1756.2478 -7431.1170 298.1728 -9187.3648 -7431.1170 298.1728 -812.3723 -722.1071 30562.6664 -812.3723 -722.1071
ENERGY: 300000 3.7269 9.5775 3.7305 0.0000 -10624.9491 1421.6884 0.0000 0.0000 1790.1944 -7396.0315 303.9362 -9186.2259 -7454.9339 301.3772 -92.6288 -3.0447 30520.8930 -188.4417 -108.4310
ENERGY: 600000 1.5099 8.4717 2.7530 0.0000 -10701.2093 1440.5859 0.0000 0.0000 1742.7747 -7505.1141 295.8853 -9247.8888 -7472.0285 298.3551 -72.1490 -46.5966 30579.0666 -204.9807 -136.0947
ENERGY: 900000 2.3640 12.5611 5.0653 0.0000 -10844.0199 1546.3011 0.0000 0.0000 1813.0058 -7464.7225 307.8091 -9277.7284 -7456.2237 300.0755 878.1602 937.8151 30198.8973 -134.9499 -73.4112
ENERGY: 1200000 1.6639 11.1929 3.8186 0.0000 -10695.5293 1456.1661 0.0000 0.0000 1785.7870 -7436.9008 303.1879 -9222.6878 -7456.6059 301.4142 243.3578 274.6758 30367.6322 -116.0983 -55.2012
ENERGY: 1500000 1.3921 11.6025 4.2920 0.0000 -10574.7223 1341.3227 0.0000 0.0000 1754.0006 -7462.1123 297.7913 -9216.1129 -7464.2798 300.7050 -713.5541 -619.7820 30421.7789 -162.6419 -100.3717
TCL: Running FEP window  16: Lambda1 0.24999999999999967 Lambda2 0.19999999999999968 [dLambda -0.04999999999999999]
TCL: Setting parameter firsttimestep to 0
TCL: Setting parameter alchLambda to 0.24999999999999967
Info: NONBONDED TABLE R-SQUARED SPACING: 0.0625
Info: NONBONDED TABLE SIZE: 705 POINTS
TCL: Setting parameter alchLambda2 to 0.19999999999999968
Info: NONBONDED TABLE R-SQUARED SPACING: 0.0625
Info: NONBONDED TABLE SIZE: 705 POINTS
TCL: Running for 1500000 steps
ETITLE: TS BOND ANGLE DIHED IMPRP ELECT VDW BOUNDARY MISC KINETIC TOTAL TEMP POTENTIAL TOTALAVG TEMPAVG PRESSURE GPRESSURE VOLUME PRESSAVG GPRESSAVG
ENERGY: 0 1.3921 11.6025 4.2920 0.0000 -10574.7224 1341.9310 0.0000 0.0000 1753.1001 -7462.4048 297.6384 -9215.5048 -7462.4048 297.6384 -692.1662 -621.8063 30421.7789 -692.1662 -621.8063
ENERGY: 300000 1.4727 10.9559 2.6918 0.0000 -10794.9301 1500.2420 0.0000 0.0000 1758.1476 -7521.4202 298.4953 -9279.5677 -7486.6513 297.0202 156.2020 278.9640 30309.3201 -465.6248 -369.6447
ENERGY: 600000 1.1994 13.1500 2.5969 0.0000 -10628.7379 1400.4195 0.0000 0.0000 1814.6542 -7396.7180 308.0889 -9211.3722 -7455.2949 300.1460 -32.1597 41.7750 29905.0194 -461.7265 -373.0783
ENERGY: 900000 4.2032 8.2611 6.3879 0.0000 -10792.1705 1522.2179 0.0000 0.0000 1757.2305 -7493.8699 298.3396 -9251.1003 -7461.9356 300.4859 757.0987 820.6107 29943.0506 -170.1551 -91.7008
ENERGY: 1200000 0.8208 9.8648 3.2898 0.0000 -10838.2962 1492.4837 0.0000 0.0000 1776.1779 -7555.6593 301.5565 -9331.8372 -7470.8668 299.5010 508.1171 566.7393 29703.8171 -153.5250 -80.0247
ENERGY: 1500000 2.7393 14.2441 3.2177 0.0000 -10687.1678 1481.1735 0.0000 0.0000 1779.1747 -7406.6185 302.0653 -9185.7932 -7465.1072 299.7957 388.4180 453.7528 30110.8711 -98.2011 -24.3069
TCL: Running FEP window  17: Lambda1 0.19999999999999968 Lambda2 0.1499999999999997 [dLambda -0.04999999999999999]
TCL: Setting parameter firsttimestep to 0
TCL: Setting parameter alchLambda to 0.19999999999999968
Info: NONBONDED TABLE R-SQUARED SPACING: 0.0625
Info: NONBONDED TABLE SIZE: 705 POINTS
TCL: Setting parameter alchLambda2 to 0.1499999999999997
Info: NONBONDED TABLE R-SQUARED SPACING: 0.0625
Info: NONBONDED TABLE SIZE: 705 POINTS
TCL: Running for 1500000 steps
ETITLE: TS BOND ANGLE DIHED IMPRP ELECT VDW BOUNDARY MISC KINETIC TOTAL TEMP POTENTIAL TOTALAVG TEMPAVG PRESSURE GPRESSURE VOLUME PRESSAVG GPRESSAVG
ENERGY: 0 2.7393 14.2441 3.2177 0.0000 -10687.1647 1481.7519 0.0000 0.0000 1778.2806 -7406.9310 301.9135 -9185.2116 -7406.9310 301.9135 379.9306 452.7589 30110.8711 379.9306 452.7589
ENERGY: 300000 1.2846 10.2514 2.8049 0.0000 -10661.2986 1420.0090 0.0000 0.0000 1793.8585 -7433.0902 304.5582 -9226.9487 -7493.2110 300.2190 -16.8569 7.8069 30181.7820 492.6318 535.0811
ENERGY: 600000 3.1488 9.5755 4.1328 0.0000 -10605.0878 1382.1182 0.0000 0.0000 1740.8012 -7465.3113 295.5503 -9206.1124 -7473.7826 300.5301 -320.5572 -266.9041 30034.5502 206.4770 255.8329
ENERGY: 900000 3.7404 9.6442 3.1244 0.0000 -10565.4799 1377.2444 0.0000 0.0000 1729.4125 -7442.3140 293.6167 -9171.7264 -7470.6262 299.3722 -186.8557 -118.1478 29976.5825 151.3663 210.3125
ENERGY: 1200000 3.9775 11.9619 5.5830 0.0000 -10720.2888 1498.0804 0.0000 0.0000 1769.6537 -7431.0323 300.4488 -9200.6860 -7467.6465 299.7065 440.3582 547.2948 30463.4337 145.8324 208.4470
ENERGY: 1500000 2.4724 13.2096 3.7584 0.0000 -10746.2266 1453.0099 0.0000 0.0000 1811.1802 -7462.5961 307.4991 -9273.7763 -7470.3660 300.4554 -64.9564 -49.0270 30068.2840 135.6311 203.8465
TCL: Running FEP window  18: Lambda1 0.1499999999999997 Lambda2 0.09999999999999969 [dLambda -0.05 ]
TCL: Setting parameter firsttimestep to 0
TCL: Setting parameter alchLambda to 0.1499999999999997
Info: NONBONDED TABLE R-SQUARED SPACING: 0.0625
Info: NONBONDED TABLE SIZE: 705 POINTS
TCL: Setting parameter alchLambda2 to 0.09999999999999969
Info: NONBONDED TABLE R-SQUARED SPACING: 0.0625
Info: NONBONDED TABLE SIZE: 705 POINTS
TCL: Running for 1500000 steps
ETITLE: TS BOND ANGLE DIHED IMPRP ELECT VDW BOUNDARY MISC KINETIC TOTAL TEMP POTENTIAL TOTALAVG TEMPAVG PRESSURE GPRESSURE VOLUME PRESSAVG GPRESSAVG
ENERGY: 0 2.4724 13.2096 3.7584 0.0000 -10746.2273 1452.8026 0.0000 0.0000 1810.2716 -7463.7127 307.3448 -9273.9842 -7463.7127 307.3448 -133.2429 -57.4563 30068.2840 -133.2429 -57.4563
ENERGY: 300000 0.9715 10.5222 5.3053 0.0000 -10578.3114 1392.0925 0.0000 0.0000 1723.3176 -7446.1023 292.5819 -9169.4199 -7466.1422 299.6046 -689.5164 -520.2822 30975.3326 -212.0565 -124.7724
ENERGY: 600000 1.0148 8.4256 5.3215 0.0000 -10657.4950 1387.8854 0.0000 0.0000 1677.6258 -7577.2218 284.8245 -9254.8476 -7473.3381 298.5947 -689.9012 -609.4143 30511.4121 -348.4604 -261.9517
ENERGY: 900000 3.9363 11.7750 4.2263 0.0000 -10702.7877 1453.9888 0.0000 0.0000 1730.1345 -7498.7269 293.7393 -9228.8614 -7467.4914 299.6329 -53.7492 4.7492 29971.7241 -169.8326 -88.9740
ENERGY: 1200000 1.7356 14.7462 3.9289 0.0000 -10643.3721 1450.5963 0.0000 0.0000 1788.8721 -7383.4930 303.7117 -9172.3651 -7463.4158 299.9160 339.5432 354.1482 30380.8429 -100.7858 -24.7566
ENERGY: 1500000 3.1724 8.9323 2.2730 0.0000 -10598.8454 1380.1646 0.0000 0.0000 1727.1352 -7477.1679 293.2301 -9204.3031 -7456.1803 299.3533 -472.0247 -439.8818 30435.6693 -101.7331 -33.5718
TCL: Running FEP window  19: Lambda1 0.09999999999999969 Lambda2 0.049999999999999684 [dLambda -0.05 ]
TCL: Setting parameter firsttimestep to 0
TCL: Setting parameter alchLambda to 0.09999999999999969
Info: NONBONDED TABLE R-SQUARED SPACING: 0.0625
Info: NONBONDED TABLE SIZE: 705 POINTS
TCL: Setting parameter alchLambda2 to 0.049999999999999684
Info: NONBONDED TABLE R-SQUARED SPACING: 0.0625
Info: NONBONDED TABLE SIZE: 705 POINTS
TCL: Running for 1500000 steps
ETITLE: TS BOND ANGLE DIHED IMPRP ELECT VDW BOUNDARY MISC KINETIC TOTAL TEMP POTENTIAL TOTALAVG TEMPAVG PRESSURE GPRESSURE VOLUME PRESSAVG GPRESSAVG
ENERGY: 0 3.1724 8.9324 2.2730 0.0000 -10598.8466 1380.4168 0.0000 0.0000 1726.2411 -7477.8110 293.0783 -9204.0521 -7477.8110 293.0783 -526.0175 -442.9286 30435.6693 -526.0175 -442.9286
ENERGY: 300000 3.8616 8.6688 3.2964 0.0000 -10678.4088 1494.6569 0.0000 0.0000 1748.0438 -7419.8813 296.7799 -9167.9251 -7465.8307 297.2265 584.7345 564.0049 30195.4210 87.7120 128.9585
ENERGY: 600000 3.1022 10.3532 4.3128 0.0000 -10626.6834 1378.8090 0.0000 0.0000 1753.4144 -7476.6918 297.6917 -9230.1062 -7451.0787 297.6733 -310.7136 -235.0591 30135.9616 58.2881 108.4862
ENERGY: 900000 2.0517 11.5522 5.2980 0.0000 -10670.3894 1417.8899 0.0000 0.0000 1767.8361 -7465.7615 300.1402 -9233.5976 -7456.0617 299.4226 -199.8688 -145.2851 30348.3420 -104.1942 -44.6163
ENERGY: 1200000 1.9328 11.2068 3.3878 0.0000 -10746.9062 1457.5697 0.0000 0.0000 1781.9429 -7490.8660 302.5352 -9272.8090 -7460.1153 300.8428 49.5205 124.8137 30155.8129 -164.8585 -97.4036
ENERGY: 1500000 2.3892 8.8044 3.4193 0.0000 -10867.2050 1489.9954 0.0000 0.0000 1755.3244 -7607.2721 298.0160 -9362.5966 -7466.7931 299.9131 57.1664 172.5178 29867.7302 -184.7402 -114.9909
TCL: Running FEP window  20: Lambda1 0.049999999999999684 Lambda2 0.0    [dLambda -0.049999999999999684]
TCL: Setting parameter firsttimestep to 0
TCL: Setting parameter alchLambda to 0.049999999999999684
Info: NONBONDED TABLE R-SQUARED SPACING: 0.0625
Info: NONBONDED TABLE SIZE: 705 POINTS
TCL: Setting parameter alchLambda2 to 0.0
Info: NONBONDED TABLE R-SQUARED SPACING: 0.0625
Info: NONBONDED TABLE SIZE: 705 POINTS
TCL: Running for 1500000 steps
ETITLE: TS BOND ANGLE DIHED IMPRP ELECT VDW BOUNDARY MISC KINETIC TOTAL TEMP POTENTIAL TOTALAVG TEMPAVG PRESSURE GPRESSURE VOLUME PRESSAVG GPRESSAVG
ENERGY: 0 2.3892 8.8044 3.4193 0.0000 -10867.2053 1489.4789 0.0000 0.0000 1754.4310 -7608.6825 297.8643 -9363.1134 -7608.6825 297.8643 64.7722 164.5525 29867.7302 64.7722 164.5525
ENERGY: 300000 2.7658 7.2331 2.4135 0.0000 -10558.2887 1364.1651 0.0000 0.0000 1800.0447 -7381.6665 305.6085 -9181.7112 -7495.4248 301.2380 -683.4704 -624.8785 30631.6733 -399.0894 -333.2563
ENERGY: 600000 1.1741 14.9087 4.7175 0.0000 -10677.2416 1400.5013 0.0000 0.0000 1806.0963 -7449.8438 306.6360 -9255.9401 -7472.1003 301.1782 -474.3027 -364.8933 30559.9014 -362.5971 -290.7612
ENERGY: 900000 1.6490 9.6627 4.5440 0.0000 -10705.4300 1436.9249 0.0000 0.0000 1769.0788 -7483.5707 300.3512 -9252.6494 -7472.9810 300.8476 140.0240 162.4927 29938.1628 -98.8966 -32.2462
ENERGY: 1200000 3.0635 9.3422 2.5831 0.0000 -10622.6946 1353.1723 0.0000 0.0000 1756.8157 -7497.7178 298.2692 -9254.5335 -7479.3827 300.3532 -830.3984 -772.1429 30212.6041 -155.8408 -96.7263
ENERGY: 1500000 1.4219 10.1100 2.8144 0.0000 -10573.2114 1376.1264 0.0000 0.0000 1763.1000 -7419.6387 299.3361 -9182.7387 -7471.5779 300.3846 -241.2180 -124.6136 30012.6337 -122.4790 -56.2863
TCL: Exiting due to exit command.
