Info: SIMULATION PARAMETERS:
Info: TIMESTEP               2
Info: NUMBER OF STEPS        0
Info: STEPS PER CYCLE        10
Info: PERIODIC CELL BASIS 1  29.7334 0 0
Info: PERIODIC CELL BASIS 2  0 32.853 0
Info: PERIODIC CELL BASIS 3  0 0 30.3644
Info: PERIODIC CELL CENTER   0 0 0
Info: WRAPPING WATERS AROUND PERIODIC BOUNDARIES ON OUTPUT.
Info: WRAPPING ALL CLUSTERS AROUND PERIODIC BOUNDARIES ON OUTPUT.
Info: FIRST LDB TIMESTEP     50
Info: LAST LDB TIMESTEP     -1
Info: HOM BACKGROUND SCALING 1
Info: PME BACKGROUND SCALING 1
Info: MIN ATOMS PER PATCH    40
Info: EMPTY PATCH LOAD       40 ATOMS
Info: VELOCITY FILE          mobley_8713762_equil.vel
Info: CENTER OF MASS MOVING INITIALLY? NO
Info: DIELECTRIC             1
Info: EXCLUDE                SCALED ONE-FOUR
Info: 1-4 ELECTROSTATICS SCALED BY 0.833333
Info: MODIFIED 1-4 VDW PARAMETERS WILL BE USED
Info: DCD FILENAME           mobley_8713762_prod.dcd
Info: DCD FREQUENCY          100000
Info: DCD FIRST STEP         100000
Info: DCD FILE WILL CONTAIN UNIT CELL DATA
Info: XST FILENAME           mobley_8713762_prod.xst
Info: XST FREQUENCY          100000
Info: NO VELOCITY DCD OUTPUT
Info: NO FORCE DCD OUTPUT
Info: OUTPUT FILENAME        mobley_8713762_prod
Info: BINARY OUTPUT FILES WILL BE USED
Info: RESTART FILENAME       mobley_8713762_prod.restart
Info: RESTART FREQUENCY      100000
Info: BINARY RESTART FILES WILL BE USED
Info: CUTOFF                 9
Info: PAIRLIST DISTANCE      11
Info: PAIRLIST SHRINK RATE   0.01
Info: PAIRLIST GROW RATE     0.01
Info: PAIRLIST TRIGGER       0.3
Info: PAIRLISTS PER CYCLE    2
Info: PAIRLISTS ENABLED
Info: MARGIN                 2
Info: HYDROGEN GROUP CUTOFF  2.5
Info: PATCH DIMENSION        15.5
Info: ENERGY OUTPUT STEPS    100000
Info: ENERGY EVALUATION STEPS    100000
Info: OUTPUT ENERGY PRECISION 4
Info: CROSSTERM ENERGY INCLUDED IN DIHEDRAL
Info: TIMING OUTPUT STEPS    1000000
Info: PRESSURE OUTPUT STEPS  100000
Info: ALCHEMICAL FEP ON
Info: FEP CURRENT LAMBDA VALUE     0
Info: FEP COMPARISON LAMBDA VALUE  0.05
Info: FEP INTRA-ALCHEMICAL NON-BONDED INTERACTIONS WILL BE RETAINED
Info: FEP INTRA-ALCHEMICAL BONDED INTERACTIONS WILL BE RETAINED
Info: FEP VDW SHIFTING COEFFICIENT 5
Info: FEP ELEC. ACTIVE FOR ANNIHILATED PARTICLES BETWEEN LAMBDA = 0 AND LAMBDA = 0.5
Info: FEP ELEC. ACTIVE FOR EXNIHILATED PARTICLES BETWEEN LAMBDA = 0.5 AND LAMBDA = 1
Info: FEP VDW ACTIVE FOR ANNIHILATED PARTICLES BETWEEN LAMBDA = 0 AND LAMBDA = 1
Info: FEP VDW ACTIVE FOR EXNIHILATED PARTICLES BETWEEN LAMBDA = 0 AND LAMBDA = 1
Info: FEP BOND ACTIVE FOR ANNIHILATED PARTICLES BETWEEN LAMBDA = 1 AND LAMBDA = 1
Info: FEP BOND ACTIVE FOR EXNIHILATED PARTICLES BETWEEN LAMBDA = 0 AND LAMBDA = 0
Info: LANGEVIN DYNAMICS ACTIVE
Info: LANGEVIN TEMPERATURE   300
Info: LANGEVIN USING BBK INTEGRATOR
Info: LANGEVIN DAMPING COEFFICIENT IS 1 INVERSE PS
Info: LANGEVIN DYNAMICS APPLIED TO HYDROGENS
Info: LANGEVIN PISTON PRESSURE CONTROL ACTIVE
Info:        TARGET PRESSURE IS 1.01325 BAR
Info:     OSCILLATION PERIOD IS 50 FS
Info:             DECAY TIME IS 25 FS
Info:     PISTON TEMPERATURE IS 300 K
Info:       PRESSURE CONTROL IS GROUP-BASED
Info:    INITIAL STRAIN RATE IS -3.81466e-05 -3.81466e-05 -3.81466e-05
Info:       CELL FLUCTUATION IS ISOTROPIC
Info: PARTICLE MESH EWALD (PME) ACTIVE
Info: PME TOLERANCE               1e-06
Info: PME EWALD COEFFICIENT       0.348832
Info: PME INTERPOLATION ORDER     4
Info: PME GRID DIMENSIONS         32 36 32
Info: PME MAXIMUM GRID SPACING    1
Info: PME CALCULATION WILL BE PERFORMED ON GPU
Info: FULL ELECTROSTATIC EVALUATION FREQUENCY      2
Info: USING VERLET I (r-RESPA) MTS SCHEME.
Info: C1 SPLITTING OF LONG RANGE ELECTROSTATICS
Info: PLACING ATOMS IN PATCHES BY HYDROGEN GROUPS
Info: RIGID BONDS TO HYDROGEN : ALL
Info:         ERROR TOLERANCE : 1e-08
Info:          MAX ITERATIONS : 100
Info: RIGID WATER USING SETTLE ALGORITHM
Info: RANDOM NUMBER SEED     1744078740
Info: USE HYDROGEN BONDS?    NO
Info: Using AMBER format force field!
Info: AMBER PARM FILE        mobley_8713762.prmtop
Info: COORDINATE PDB         mobley_8713762.pdb
Info: Exclusions will be read from PARM file!
Info: SCNB (VDW SCALING)     2
Info: USING ARITHMETIC MEAN TO COMBINE L-J SIGMA PARAMETERS
Info: BINARY COORDINATES     mobley_8713762_equil.coor
Info: SUMMARY OF PARAMETERS:
Info: 10 BONDS
Info: 15 ANGLES
Info:   15 HARMONIC
Info:   0 COSINE-BASED
Info: 11 DIHEDRAL
Info: 0 IMPROPER
Info: 0 CROSSTERM
Info: 0 VDW
Info: 45 VDW_PAIRS
Info: 0 NBTHOLE_PAIRS
Info: To read alchdata from file: mobley_8713762.pdb
Info: To read alchflag data from column: 5
Info: STRUCTURE SUMMARY:
Info: 2914 ATOMS
Info: 2913 BONDS
Info: 61 ANGLES
Info: 83 DIHEDRALS
Info: 0 IMPROPERS
Info: 0 CROSSTERMS
Info: 3049 EXCLUSIONS
Info: 2901 RIGID BONDS
Info: ALCH: 0 ATOMS TO DISAPPEAR IN FINAL STATE
Info: ALCH: 34 ATOMS TO APPEAR IN FINAL STATE
Info: 5841 DEGREES OF FREEDOM
Info: 973 HYDROGEN GROUPS
Info: 4 ATOMS IN LARGEST HYDROGEN GROUP
Info: 973 MIGRATION GROUPS
Info: 4 ATOMS IN LARGEST MIGRATION GROUP
Info: TOTAL MASS = 17498.7 amu
Info: TOTAL CHARGE = 0.000599965 e
Info: MASS DENSITY = 0.979673 g/cm^3
Info: ATOM DENSITY = 0.098244 atoms/A^3
Info: ADDED 0 IMPLICIT EXCLUSIONS
Info: NONBONDED TABLE R-SQUARED SPACING: 0.0625
Info: NONBONDED TABLE SIZE: 705 POINTS
Info: REMOVING COM VELOCITY 0.126209 -0.12504 0.0317329
Info: Use 3D box decompostion in PME FFT.
Info: Updated CUDA force table with 4096 elements.
Info: Updated CUDA LJ table with 9 x 9 elements.
Info: Found 33 unique exclusion lists needing 140 bytes
TCL: Running for 1500000 steps
ETITLE: TS BOND ANGLE DIHED IMPRP ELECT VDW BOUNDARY MISC KINETIC TOTAL TEMP POTENTIAL TOTALAVG TEMPAVG PRESSURE GPRESSURE VOLUME PRESSAVG GPRESSAVG
ENERGY: 0 3.1702 21.4632 3.6906 0.0000 -10591.7534 1448.9880 0.0000 0.0000 1729.0894 -7385.3520 297.9344 -9114.4414 -7385.3520 297.9344 198.1083 269.7909 29660.8535 198.1083 269.7909
ENERGY: 300000 2.0102 17.7813 4.9261 0.0000 -10365.8794 1332.9329 0.0000 0.0000 1728.5758 -7279.6531 297.8459 -9008.2289 -7308.6117 299.8068 -551.4070 -475.0702 29739.0019 -109.8478 -41.6113
ENERGY: 600000 1.7360 15.4660 4.3393 0.0000 -10542.2300 1387.2299 0.0000 0.0000 1744.2064 -7389.2524 300.5392 -9133.4588 -7336.3571 298.8302 -281.7009 -207.0222 29404.3433 -185.1370 -103.0850
ENERGY: 900000 5.8150 21.0885 5.9302 0.0000 -10573.1768 1433.4205 0.0000 0.0000 1712.7587 -7394.1640 295.1205 -9106.9227 -7340.4954 299.6653 -308.9175 -333.6617 29874.3051 -268.5573 -207.3715
ENERGY: 1200000 3.1435 8.3276 7.1318 0.0000 -10567.8913 1507.7448 0.0000 0.0000 1726.4480 -7315.0956 297.4793 -9041.5436 -7329.7524 300.3041 932.3485 1018.3904 29341.0627 -175.8781 -114.3836
ENERGY: 1500000 4.0955 20.5550 6.2575 0.0000 -10505.2125 1379.4223 0.0000 0.0000 1686.1592 -7408.7230 290.5372 -9094.8822 -7329.6827 299.1940 -583.4183 -491.9150 29743.7338 -201.7062 -142.2101
TCL: Running FEP window   2: Lambda1 0.05   Lambda2 0.1    [dLambda 0.05  ]
TCL: Setting parameter firsttimestep to 0
TCL: Setting parameter alchLambda to 0.05
Info: NONBONDED TABLE R-SQUARED SPACING: 0.0625
Info: NONBONDED TABLE SIZE: 705 POINTS
TCL: Setting parameter alchLambda2 to 0.1
Info: NONBONDED TABLE R-SQUARED SPACING: 0.0625
Info: NONBONDED TABLE SIZE: 705 POINTS
TCL: Running for 1500000 steps
ETITLE: TS BOND ANGLE DIHED IMPRP ELECT VDW BOUNDARY MISC KINETIC TOTAL TEMP POTENTIAL TOTALAVG TEMPAVG PRESSURE GPRESSURE VOLUME PRESSAVG GPRESSAVG
ENERGY: 0 4.0955 20.5550 6.2575 0.0000 -10505.2123 1384.4986 0.0000 0.0000 1685.2790 -7404.5266 290.3855 -9089.8056 -7404.5266 290.3855 -558.9541 -478.5414 29743.7338 -558.9541 -478.5414
ENERGY: 300000 2.9039 17.0830 6.1377 0.0000 -10472.3399 1469.7400 0.0000 0.0000 1691.8294 -7284.6460 291.5142 -8976.4753 -7325.4570 296.8710 515.5554 572.9107 30054.0451 204.5256 260.4974
ENERGY: 600000 4.0334 16.0893 4.8878 0.0000 -10391.9284 1320.4832 0.0000 0.0000 1787.6398 -7258.7949 308.0230 -9046.4347 -7323.5389 299.5715 -671.7098 -610.6966 29399.3552 115.7340 173.1596
ENERGY: 900000 2.1239 15.4739 4.5590 0.0000 -10637.7877 1492.5460 0.0000 0.0000 1771.3105 -7351.7745 305.2094 -9123.0850 -7324.1066 300.8620 428.9781 455.4910 29857.6082 115.6741 162.7498
ENERGY: 1200000 4.6630 15.8445 3.0154 0.0000 -10511.8953 1465.1538 0.0000 0.0000 1735.2631 -7287.9555 298.9982 -9023.2185 -7312.9043 301.1351 308.9885 419.7362 29809.6695 49.6142 105.8970
ENERGY: 1500000 3.6286 14.8633 3.8098 0.0000 -10591.2591 1435.5676 0.0000 0.0000 1756.9602 -7376.4296 302.7367 -9133.3898 -7318.4403 300.7352 -92.7425 -1.5429 29480.8951 8.7908 67.5991
TCL: Running FEP window   3: Lambda1 0.1    Lambda2 0.15000000000000002 [dLambda 0.05000000000000002]
TCL: Setting parameter firsttimestep to 0
TCL: Setting parameter alchLambda to 0.1
Info: NONBONDED TABLE R-SQUARED SPACING: 0.0625
Info: NONBONDED TABLE SIZE: 705 POINTS
TCL: Setting parameter alchLambda2 to 0.15000000000000002
Info: NONBONDED TABLE R-SQUARED SPACING: 0.0625
Info: NONBONDED TABLE SIZE: 705 POINTS
TCL: Running for 1500000 steps
ETITLE: TS BOND ANGLE DIHED IMPRP ELECT VDW BOUNDARY MISC KINETIC TOTAL TEMP POTENTIAL TOTALAVG TEMPAVG PRESSURE GPRESSURE VOLUME PRESSAVG GPRESSAVG
ENERGY: 0 3.6286 14.8633 3.8098 0.0000 -10591.2575 1440.8173 0.0000 0.0000 1756.0533 -7372.0851 302.5805 -9128.1384 -7372.0851 302.5805 -81.9542 12.0188 29480.8951 -81.9542 12.0188
ENERGY: 300000 5.2676 19.3240 7.6290 0.0000 -10516.4281 1509.2608 0.0000 0.0000 1766.0289 -7208.9178 304.2993 -8974.9467 -7299.2015 301.7065 733.2810 774.1403 30145.8408 212.3643 251.5385
ENERGY: 600000 3.8911 16.8374 7.0890 0.0000 -10396.2091 1355.2933 0.0000 0.0000 1726.4947 -7286.6036 297.4873 -9013.0984 -7280.5202 301.3221 -192.4694 -189.4436 29960.4745 -22.1184 30.2102
ENERGY: 900000 2.3147 18.6009 3.8397 0.0000 -10553.7869 1468.6527 0.0000 0.0000 1715.7943 -7344.5845 295.6435 -9060.3789 -7287.6378 302.1414 303.1192 351.6379 29773.3197 -135.7342 -75.2473
ENERGY: 1200000 4.3550 16.0187 3.5661 0.0000 -10458.9584 1432.2419 0.0000 0.0000 1745.8425 -7256.9342 300.8211 -9002.7767 -7291.5065 301.2414 97.9568 158.5516 30012.0455 -56.4313 2.1570
ENERGY: 1500000 3.0452 22.9392 4.0709 0.0000 -10433.8058 1401.0353 0.0000 0.0000 1750.8244 -7251.8908 301.6795 -9002.7152 -7288.2860 301.5001 205.7258 293.6265 29487.1161 -93.1304 -28.6225
TCL: Running FEP window   4: Lambda1 0.15000000000000002 Lambda2 0.2    [dLambda 0.04999999999999999]
TCL: Setting parameter firsttimestep to 0
TCL: Setting parameter alchLambda to 0.15000000000000002
Info: NONBONDED TABLE R-SQUARED SPACING: 0.0625
Info: NONBONDED TABLE SIZE: 705 POINTS
TCL: Setting parameter alchLambda2 to 0.2
Info: NONBONDED TABLE R-SQUARED SPACING: 0.0625
Info: NONBONDED TABLE SIZE: 705 POINTS
TCL: Running for 1500000 steps
ETITLE: TS BOND ANGLE DIHED IMPRP ELECT VDW BOUNDARY MISC KINETIC TOTAL TEMP POTENTIAL TOTALAVG TEMPAVG PRESSURE GPRESSURE VOLUME PRESSAVG GPRESSAVG
ENERGY: 0 3.0452 22.9392 4.0709 0.0000 -10433.8049 1402.2290 0.0000 0.0000 1749.9390 -7251.5817 301.5269 -9001.5207 -7251.5817 301.5269 227.8454 307.3804 29487.1161 227.8454 307.3804
ENERGY: 300000 3.8000 12.8619 6.0314 0.0000 -10498.4323 1396.5090 0.0000 0.0000 1756.8329 -7322.3972 302.7148 -9079.2300 -7300.3176 304.9482 -158.6109 -100.8500 29821.0737 198.8049 255.6864
ENERGY: 600000 5.2797 15.9657 7.4266 0.0000 -10498.4441 1472.8388 0.0000 0.0000 1813.6209 -7183.3124 312.4998 -8996.9333 -7281.0279 304.0863 954.6462 1055.5826 29443.6912 4.3643 69.6543
ENERGY: 900000 2.5088 20.4559 6.4048 0.0000 -10598.2389 1421.2948 0.0000 0.0000 1728.5492 -7419.0255 297.8413 -9147.5747 -7303.1990 303.4181 -124.1894 -108.1850 29556.5241 -13.1587 37.9143
ENERGY: 1200000 4.1168 17.0117 6.2804 0.0000 -10504.3347 1438.4654 0.0000 0.0000 1723.3954 -7315.0650 296.9533 -9038.4604 -7313.0908 301.8034 212.6559 264.7533 29716.2400 52.9637 112.0225
ENERGY: 1500000 4.2934 18.6047 6.2209 0.0000 -10535.4563 1455.2910 0.0000 0.0000 1737.6036 -7313.4427 299.4014 -9051.0464 -7313.2586 301.5887 569.5657 706.3666 29415.2073 116.0266 184.2720
TCL: Running FEP window   5: Lambda1 0.2    Lambda2 0.25   [dLambda 0.04999999999999999]
TCL: Setting parameter firsttimestep to 0
TCL: Setting parameter alchLambda to 0.2
Info: NONBONDED TABLE R-SQUARED SPACING: 0.0625
Info: NONBONDED TABLE SIZE: 705 POINTS
TCL: Setting parameter alchLambda2 to 0.25
Info: NONBONDED TABLE R-SQUARED SPACING: 0.0625
Info: NONBONDED TABLE SIZE: 705 POINTS
TCL: Running for 1500000 steps
ETITLE: TS BOND ANGLE DIHED IMPRP ELECT VDW BOUNDARY MISC KINETIC TOTAL TEMP POTENTIAL TOTALAVG TEMPAVG PRESSURE GPRESSURE VOLUME PRESSAVG GPRESSAVG
ENERGY: 0 4.2934 18.6047 6.2209 0.0000 -10535.4566 1456.5820 0.0000 0.0000 1736.7022 -7313.0533 299.2461 -9049.7555 -7313.0533 299.2461 626.5967 717.9982 29415.2073 626.5967 717.9982
ENERGY: 300000 5.4090 14.4050 7.8977 0.0000 -10606.7918 1357.7857 0.0000 0.0000 1672.4125 -7548.8819 288.1686 -9221.2944 -7385.6938 296.0924 -930.0093 -899.0490 29637.4099 -214.8044 -125.5803
ENERGY: 600000 1.7670 13.7198 4.3978 0.0000 -10433.5983 1435.4122 0.0000 0.0000 1681.0511 -7297.2504 289.6570 -8978.3016 -7357.9423 298.1109 367.8413 530.7264 29603.8165 -33.1942 52.7825
ENERGY: 900000 3.2076 15.8348 3.3238 0.0000 -10505.4326 1432.0588 0.0000 0.0000 1727.3348 -7323.6727 297.6321 -9051.0075 -7359.0106 297.6257 254.5755 338.2276 29386.2633 107.0035 189.9815
ENERGY: 1200000 4.7824 22.2233 6.6607 0.0000 -10570.7196 1402.4440 0.0000 0.0000 1755.6520 -7378.9574 302.5113 -9134.6094 -7347.9742 298.4845 -313.1125 -245.9446 29792.1102 126.1561 206.3051
ENERGY: 1500000 4.6023 21.1118 7.9401 0.0000 -10527.9198 1491.7637 0.0000 0.0000 1744.9667 -7257.5353 300.6702 -9002.5020 -7335.4909 299.3753 759.7596 730.6252 30033.0907 164.0663 235.5498
TCL: Running FEP window   6: Lambda1 0.25   Lambda2 0.3    [dLambda 0.04999999999999999]
TCL: Setting parameter firsttimestep to 0
TCL: Setting parameter alchLambda to 0.25
Info: NONBONDED TABLE R-SQUARED SPACING: 0.0625
Info: NONBONDED TABLE SIZE: 705 POINTS
TCL: Setting parameter alchLambda2 to 0.3
Info: NONBONDED TABLE R-SQUARED SPACING: 0.0625
Info: NONBONDED TABLE SIZE: 705 POINTS
TCL: Running for 1500000 steps
ETITLE: TS BOND ANGLE DIHED IMPRP ELECT VDW BOUNDARY MISC KINETIC TOTAL TEMP POTENTIAL TOTALAVG TEMPAVG PRESSURE GPRESSURE VOLUME PRESSAVG GPRESSAVG
ENERGY: 0 4.6023 21.1118 7.9401 0.0000 -10527.9205 1492.8322 0.0000 0.0000 1744.1125 -7257.3217 300.5230 -9001.4342 -7257.3217 300.5230 674.3898 744.5802 30033.0907 674.3898 744.5802
ENERGY: 300000 1.8647 17.7755 6.2019 0.0000 -10466.4374 1353.9999 0.0000 0.0000 1724.6736 -7361.9218 297.1735 -9086.5954 -7296.8105 300.8360 -315.0248 -250.6011 29692.0394 130.8337 178.5252
ENERGY: 600000 3.0318 14.0912 3.3475 0.0000 -10366.8461 1328.3386 0.0000 0.0000 1679.1927 -7338.8443 289.3368 -9018.0370 -7301.5097 299.4593 -715.1311 -698.6285 30063.8474 -8.1800 39.1515
ENERGY: 900000 1.8809 16.1432 4.5084 0.0000 -10504.4026 1422.5139 0.0000 0.0000 1750.4921 -7308.8642 301.6222 -9059.3563 -7297.4109 299.6530 117.9972 144.9006 29984.8605 -27.9136 18.3916
ENERGY: 1200000 4.9546 15.4971 3.8031 0.0000 -10470.5484 1441.4471 0.0000 0.0000 1695.7717 -7309.0748 292.1935 -9004.8465 -7314.1080 298.4056 132.3964 182.1844 29834.8304 47.2254 94.5443
ENERGY: 1500000 4.9506 13.7145 3.6068 0.0000 -10585.0672 1434.5156 0.0000 0.0000 1769.9107 -7358.3691 304.9682 -9128.2797 -7310.7220 298.8447 33.4340 123.3949 29626.1259 101.8715 150.5329
TCL: Running FEP window   7: Lambda1 0.3    Lambda2 0.35   [dLambda 0.04999999999999999]
TCL: Setting parameter firsttimestep to 0
TCL: Setting parameter alchLambda to 0.3
Info: NONBONDED TABLE R-SQUARED SPACING: 0.0625
Info: NONBONDED TABLE SIZE: 705 POINTS
TCL: Setting parameter alchLambda2 to 0.35
Info: NONBONDED TABLE R-SQUARED SPACING: 0.0625
Info: NONBONDED TABLE SIZE: 705 POINTS
TCL: Running for 1500000 steps
ETITLE: TS BOND ANGLE DIHED IMPRP ELECT VDW BOUNDARY MISC KINETIC TOTAL TEMP POTENTIAL TOTALAVG TEMPAVG PRESSURE GPRESSURE VOLUME PRESSAVG GPRESSAVG
ENERGY: 0 4.9506 13.7145 3.6068 0.0000 -10585.0665 1435.5150 0.0000 0.0000 1769.0744 -7358.2052 304.8241 -9127.2797 -7358.2052 304.8241 53.9757 140.4341 29626.1259 53.9757 140.4341
ENERGY: 300000 3.6808 15.4796 3.8894 0.0000 -10422.4557 1413.5546 0.0000 0.0000 1765.6364 -7220.2148 304.2317 -8985.8513 -7334.5557 302.5302 422.8230 511.1589 29845.7912 72.7545 133.0465
ENERGY: 600000 2.1745 14.3798 6.2372 0.0000 -10449.6915 1357.7838 0.0000 0.0000 1727.0080 -7342.1082 297.5757 -9069.1162 -7353.6831 300.1324 -482.0914 -393.3384 30055.0250 113.2628 176.0608
ENERGY: 900000 2.9620 19.6616 7.6661 0.0000 -10633.1026 1535.4184 0.0000 0.0000 1782.4176 -7284.9768 307.1232 -9067.3945 -7335.9713 301.5125 1038.8745 1071.7377 29585.5856 180.6713 231.6628
ENERGY: 1200000 3.1606 16.2559 6.5529 0.0000 -10573.5542 1442.1373 0.0000 0.0000 1761.5946 -7343.8529 303.5353 -9105.4475 -7341.3940 300.7504 -6.1819 9.9569 29887.0020 147.3460 195.8778
ENERGY: 1500000 4.6802 19.4340 3.9089 0.0000 -10487.8162 1364.4421 0.0000 0.0000 1759.1848 -7336.1662 303.1200 -9095.3510 -7335.0492 300.5904 -497.3572 -404.2663 30077.5683 21.4608 75.2347
TCL: Running FEP window   8: Lambda1 0.35   Lambda2 0.39999999999999997 [dLambda 0.04999999999999999]
TCL: Setting parameter firsttimestep to 0
TCL: Setting parameter alchLambda to 0.35
Info: NONBONDED TABLE R-SQUARED SPACING: 0.0625
Info: NONBONDED TABLE SIZE: 705 POINTS
TCL: Setting parameter alchLambda2 to 0.39999999999999997
Info: NONBONDED TABLE R-SQUARED SPACING: 0.0625
Info: NONBONDED TABLE SIZE: 705 POINTS
TCL: Running for 1500000 steps
ETITLE: TS BOND ANGLE DIHED IMPRP ELECT VDW BOUNDARY MISC KINETIC TOTAL TEMP POTENTIAL TOTALAVG TEMPAVG PRESSURE GPRESSURE VOLUME PRESSAVG GPRESSAVG
ENERGY: 0 4.6802 19.4340 3.9089 0.0000 -10487.8163 1364.6591 0.0000 0.0000 1758.3156 -7336.8185 302.9703 -9095.1341 -7336.8185 302.9703 -476.8138 -396.4620 30077.5683 -476.8138 -396.4620
ENERGY: 300000 3.0270 14.8562 5.2129 0.0000 -10514.1029 1412.8647 0.0000 0.0000 1766.1637 -7311.9784 304.3226 -9078.1422 -7306.3859 304.5266 32.5931 144.1708 29413.5045 -241.8113 -171.6933
ENERGY: 600000 4.6075 14.2193 3.5651 0.0000 -10680.7299 1548.1139 0.0000 0.0000 1752.6857 -7357.5384 302.0002 -9110.2241 -7315.5723 303.4284 707.3634 754.0387 30231.4959 -40.7192 12.3957
ENERGY: 900000 4.5638 15.3027 4.5860 0.0000 -10483.9490 1395.9961 0.0000 0.0000 1707.6381 -7355.8623 294.2382 -9063.5004 -7322.7664 302.9935 -275.4933 -187.2595 29858.8195 -143.1096 -84.7501
ENERGY: 1200000 3.3631 12.0986 5.5986 0.0000 -10532.0754 1419.5437 0.0000 0.0000 1720.6646 -7370.8067 296.4827 -9091.4713 -7329.1231 302.6184 62.1705 140.2649 29468.4563 -166.6867 -101.9925
ENERGY: 1500000 2.6415 13.0584 5.8720 0.0000 -10423.2816 1397.3581 0.0000 0.0000 1726.4783 -7277.8733 297.4845 -9004.3516 -7324.2983 301.9809 300.4137 348.8435 29844.6911 -108.8782 -48.0728
TCL: Running FEP window   9: Lambda1 0.39999999999999997 Lambda2 0.44999999999999996 [dLambda 0.04999999999999999]
TCL: Setting parameter firsttimestep to 0
TCL: Setting parameter alchLambda to 0.39999999999999997
Info: NONBONDED TABLE R-SQUARED SPACING: 0.0625
Info: NONBONDED TABLE SIZE: 705 POINTS
TCL: Setting parameter alchLambda2 to 0.44999999999999996
Info: NONBONDED TABLE R-SQUARED SPACING: 0.0625
Info: NONBONDED TABLE SIZE: 705 POINTS
TCL: Running for 1500000 steps
ETITLE: TS BOND ANGLE DIHED IMPRP ELECT VDW BOUNDARY MISC KINETIC TOTAL TEMP POTENTIAL TOTALAVG TEMPAVG PRESSURE GPRESSURE VOLUME PRESSAVG GPRESSAVG
ENERGY: 0 2.6415 13.0584 5.8720 0.0000 -10423.2822 1397.4604 0.0000 0.0000 1725.6614 -7278.5885 297.3437 -9004.2499 -7278.5885 297.3437 283.4883 360.1501 29844.6911 283.4883 360.1501
ENERGY: 300000 4.4587 7.8650 7.7752 0.0000 -10503.5093 1378.9387 0.0000 0.0000 1739.1544 -7365.3172 299.6686 -9104.4716 -7328.2879 295.6563 -190.3831 -190.7727 29581.2027 -8.1408 52.5531
ENERGY: 600000 5.3140 14.5566 4.1437 0.0000 -10567.2174 1452.2430 0.0000 0.0000 1681.4052 -7409.5549 289.7181 -9090.9601 -7321.9177 296.4773 -98.3340 -14.7215 30104.4130 -65.9765 4.8364
ENERGY: 900000 3.3881 19.8350 4.8030 0.0000 -10263.4079 1240.4189 0.0000 0.0000 1706.1313 -7288.8316 293.9785 -8994.9630 -7319.6498 296.1611 -1192.9746 -1163.3068 30139.4957 -233.5550 -163.5524
ENERGY: 1200000 5.4577 15.1566 4.4939 0.0000 -10526.5204 1418.5779 0.0000 0.0000 1766.6125 -7316.2218 304.3999 -9082.8343 -7315.7159 297.1754 -134.5175 -8.6420 29786.2374 -182.1000 -110.8534
ENERGY: 1500000 4.1785 14.9986 4.7839 0.0000 -10553.5471 1472.7436 0.0000 0.0000 1744.6236 -7312.2189 300.6110 -9056.8425 -7312.6228 297.4500 452.6620 581.0943 29590.2090 -136.5830 -65.2397
TCL: Running FEP window  10: Lambda1 0.44999999999999996 Lambda2 0.49999999999999994 [dLambda 0.04999999999999999]
TCL: Setting parameter firsttimestep to 0
TCL: Setting parameter alchLambda to 0.44999999999999996
Info: NONBONDED TABLE R-SQUARED SPACING: 0.0625
Info: NONBONDED TABLE SIZE: 705 POINTS
TCL: Setting parameter alchLambda2 to 0.49999999999999994
Info: NONBONDED TABLE R-SQUARED SPACING: 0.0625
Info: NONBONDED TABLE SIZE: 705 POINTS
TCL: Running for 1500000 steps
ETITLE: TS BOND ANGLE DIHED IMPRP ELECT VDW BOUNDARY MISC KINETIC TOTAL TEMP POTENTIAL TOTALAVG TEMPAVG PRESSURE GPRESSURE VOLUME PRESSAVG GPRESSAVG
ENERGY: 0 4.1785 14.9986 4.7839 0.0000 -10553.5483 1473.0599 0.0000 0.0000 1743.7848 -7312.7425 300.4665 -9056.5274 -7312.7425 300.4665 503.4084 593.7574 29590.2090 503.4084 593.7574
ENERGY: 300000 4.3540 16.1904 6.6470 0.0000 -10536.6910 1432.1463 0.0000 0.0000 1739.0501 -7338.3031 299.6507 -9077.3533 -7302.2734 301.1606 119.6339 201.3519 29851.3326 27.4355 101.0531
ENERGY: 600000 2.4713 7.2427 4.4030 0.0000 -10341.0653 1340.5313 0.0000 0.0000 1800.6649 -7185.7521 310.2674 -8986.4170 -7305.8766 301.3176 -192.3145 -134.3118 29841.4479 -70.7441 -5.5144
ENERGY: 900000 2.7777 18.1669 7.7328 0.0000 -10358.5508 1293.7887 0.0000 0.0000 1739.9697 -7296.1151 299.8091 -9036.0848 -7309.1023 300.9460 -999.1859 -934.0396 30329.8563 -255.4210 -179.7743
ENERGY: 1200000 2.3138 17.8708 6.9008 0.0000 -10727.2994 1573.3910 0.0000 0.0000 1748.2531 -7378.5699 301.2364 -9126.8230 -7306.8256 300.5398 1241.1145 1333.6588 29701.1854 -103.8295 -31.3804
ENERGY: 1500000 3.3358 16.4572 3.5485 0.0000 -10510.7363 1399.4681 0.0000 0.0000 1776.2460 -7311.6807 306.0598 -9087.9267 -7303.7572 301.3504 -106.3017 -67.9161 29792.9462 -125.3529 -56.3780
TCL: Running FEP window  11: Lambda1 0.49999999999999994 Lambda2 0.5499999999999999 [dLambda 0.04999999999999999]
TCL: Setting parameter firsttimestep to 0
TCL: Setting parameter alchLambda to 0.49999999999999994
Info: NONBONDED TABLE R-SQUARED SPACING: 0.0625
Info: NONBONDED TABLE SIZE: 705 POINTS
TCL: Setting parameter alchLambda2 to 0.5499999999999999
Info: NONBONDED TABLE R-SQUARED SPACING: 0.0625
Info: NONBONDED TABLE SIZE: 705 POINTS
TCL: Running for 1500000 steps
ETITLE: TS BOND ANGLE DIHED IMPRP ELECT VDW BOUNDARY MISC KINETIC TOTAL TEMP POTENTIAL TOTALAVG TEMPAVG PRESSURE GPRESSURE VOLUME PRESSAVG GPRESSAVG
ENERGY: 0 3.3358 16.4572 3.5485 0.0000 -10510.7363 1399.2527 0.0000 0.0000 1775.3566 -7312.7855 305.9066 -9088.1421 -7312.7855 305.9066 -152.3919 -57.1993 29792.9462 -152.3919 -57.1993
ENERGY: 300000 3.4004 15.9851 5.1729 0.0000 -10374.1387 1345.5601 0.0000 0.0000 1787.3946 -7216.6256 307.9808 -9004.0202 -7275.3794 304.8787 -131.0397 -84.1542 29636.1168 23.5440 97.5494
ENERGY: 600000 4.2158 17.5202 4.2316 0.0000 -10334.9275 1333.1891 0.0000 0.0000 1757.5829 -7218.1878 302.8440 -8975.7707 -7284.5564 303.7150 -271.3156 -224.6419 29687.1629 75.7954 137.7151
ENERGY: 900000 3.2749 18.2741 5.6183 0.0000 -10391.3445 1392.8446 0.0000 0.0000 1741.9557 -7229.3770 300.1513 -8971.3327 -7274.8939 301.9389 -62.4094 1.8679 30247.6563 78.5522 133.0245
ENERGY: 1200000 6.6237 16.4430 9.1469 0.0000 -10421.9537 1302.7058 0.0000 0.0000 1753.6591 -7333.3751 302.1679 -9087.0342 -7276.6646 302.5616 -1120.9720 -1105.7738 30330.6485 -18.6644 31.7165
ENERGY: 1500000 2.4453 19.3884 7.0964 0.0000 -10593.8027 1499.1521 0.0000 0.0000 1743.7317 -7321.9888 300.4574 -9065.7205 -7284.7205 302.5400 441.5191 474.8401 30071.5977 17.9829 64.4943
TCL: Running FEP window  12: Lambda1 0.5499999999999999 Lambda2 0.6    [dLambda 0.050000000000000044]
TCL: Setting parameter firsttimestep to 0
TCL: Setting parameter alchLambda to 0.5499999999999999
Info: NONBONDED TABLE R-SQUARED SPACING: 0.0625
Info: NONBONDED TABLE SIZE: 705 POINTS
TCL: Setting parameter alchLambda2 to 0.6
Info: NONBONDED TABLE R-SQUARED SPACING: 0.0625
Info: NONBONDED TABLE SIZE: 705 POINTS
TCL: Running for 1500000 steps
ETITLE: TS BOND ANGLE DIHED IMPRP ELECT VDW BOUNDARY MISC KINETIC TOTAL TEMP POTENTIAL TOTALAVG TEMPAVG PRESSURE GPRESSURE VOLUME PRESSAVG GPRESSAVG
ENERGY: 0 2.4453 19.3884 7.0964 0.0000 -10593.5236 1499.4434 0.0000 0.0000 1742.8547 -7322.2954 300.3062 -9065.1501 -7322.2954 300.3062 415.1152 489.5854 30071.5977 415.1152 489.5854
ENERGY: 300000 5.7710 17.4840 4.9880 0.0000 -10349.9085 1302.9231 0.0000 0.0000 1704.3198 -7314.4226 293.6664 -9018.7425 -7311.1771 298.4356 -619.1620 -530.4666 29826.9352 66.7800 132.3526
ENERGY: 600000 5.2814 12.6732 3.5175 0.0000 -10447.1871 1367.2567 0.0000 0.0000 1724.5870 -7333.8713 297.1586 -9058.4583 -7346.2872 298.4257 -289.7205 -246.2232 29886.3468 62.2283 127.5476
ENERGY: 900000 4.2507 12.0148 4.7001 0.0000 -10601.3176 1463.7780 0.0000 0.0000 1728.6906 -7387.8833 297.8657 -9116.5739 -7346.2728 298.1408 246.6895 348.1286 29988.8695 -88.8580 -24.0122
ENERGY: 1200000 1.3862 19.6398 4.6464 0.0000 -10527.1942 1447.7369 0.0000 0.0000 1812.2368 -7241.5481 312.2613 -9053.7849 -7335.6531 299.4506 628.3928 724.1632 29522.9243 -44.6076 22.4547
ENERGY: 1500000 5.0233 13.3337 3.6121 0.0000 -10543.3634 1427.4455 0.0000 0.0000 1715.9047 -7378.0442 295.6626 -9093.9489 -7330.6415 299.6656 23.5663 125.9042 29843.7138 -96.1721 -29.1082
TCL: Running FEP window  13: Lambda1 0.6    Lambda2 0.65   [dLambda 0.050000000000000044]
TCL: Setting parameter firsttimestep to 0
TCL: Setting parameter alchLambda to 0.6
Info: NONBONDED TABLE R-SQUARED SPACING: 0.0625
Info: NONBONDED TABLE SIZE: 705 POINTS
TCL: Setting parameter alchLambda2 to 0.65
Info: NONBONDED TABLE R-SQUARED SPACING: 0.0625
Info: NONBONDED TABLE SIZE: 705 POINTS
TCL: Running for 1500000 steps
ETITLE: TS BOND ANGLE DIHED IMPRP ELECT VDW BOUNDARY MISC KINETIC TOTAL TEMP POTENTIAL TOTALAVG TEMPAVG PRESSURE GPRESSURE VOLUME PRESSAVG GPRESSAVG
ENERGY: 0 5.0233 13.3337 3.6121 0.0000 -10542.9198 1426.9860 0.0000 0.0000 1715.0542 -7378.9106 295.5160 -9093.9648 -7378.9106 295.5160 52.5289 134.5841 29843.7138 52.5289 134.5841
ENERGY: 300000 7.8218 15.4520 6.0730 0.0000 -10418.8330 1321.1966 0.0000 0.0000 1756.8552 -7311.4345 302.7186 -9068.2897 -7344.7774 298.0143 -953.4355 -942.7935 30247.1497 -22.5194 17.1537
ENERGY: 600000 5.8639 14.7785 6.0205 0.0000 -10405.7384 1333.6079 0.0000 0.0000 1801.7273 -7243.7403 310.4504 -9045.4676 -7323.7082 300.7936 -898.4095 -846.6917 30320.5772 -88.7047 -39.3333
ENERGY: 900000 4.7948 10.5248 3.6779 0.0000 -10544.3686 1445.2433 0.0000 0.0000 1669.2044 -7410.9234 287.6158 -9080.1278 -7321.1701 300.4773 209.4270 295.7666 29858.8768 -7.9539 45.1244
ENERGY: 1200000 4.5731 12.6295 7.2478 0.0000 -10561.9467 1443.9393 0.0000 0.0000 1736.5121 -7357.0450 299.2134 -9093.5571 -7328.0280 299.9732 -33.3487 59.5808 30422.2430 52.1074 110.9304
ENERGY: 1500000 1.7317 11.9329 3.9755 0.0000 -10487.5669 1399.7985 0.0000 0.0000 1766.4903 -7303.6379 304.3788 -9070.1282 -7335.5738 299.9349 -32.9559 45.0345 29971.4997 21.9256 82.7752
TCL: Running FEP window  14: Lambda1 0.65   Lambda2 0.7000000000000001 [dLambda 0.050000000000000044]
TCL: Setting parameter firsttimestep to 0
TCL: Setting parameter alchLambda to 0.65
Info: NONBONDED TABLE R-SQUARED SPACING: 0.0625
Info: NONBONDED TABLE SIZE: 705 POINTS
TCL: Setting parameter alchLambda2 to 0.7000000000000001
Info: NONBONDED TABLE R-SQUARED SPACING: 0.0625
Info: NONBONDED TABLE SIZE: 705 POINTS
TCL: Running for 1500000 steps
ETITLE: TS BOND ANGLE DIHED IMPRP ELECT VDW BOUNDARY MISC KINETIC TOTAL TEMP POTENTIAL TOTALAVG TEMPAVG PRESSURE GPRESSURE VOLUME PRESSAVG GPRESSAVG
ENERGY: 0 1.7317 11.9329 3.9755 0.0000 -10488.5600 1399.7223 0.0000 0.0000 1765.6418 -7305.5558 304.2326 -9071.1975 -7305.5558 304.2326 -21.0728 58.3167 29971.4997 -21.0728 58.3167
ENERGY: 300000 1.2171 17.7824 5.1841 0.0000 -10501.6467 1358.0469 0.0000 0.0000 1761.3067 -7358.1095 303.4857 -9119.4163 -7350.4653 299.5116 -550.6554 -464.2936 30092.2399 -139.3374 -70.5707
ENERGY: 600000 6.0599 15.9722 3.5813 0.0000 -10393.5271 1296.1314 0.0000 0.0000 1747.4075 -7324.3748 301.0907 -9071.7823 -7326.1126 300.9217 -823.2713 -749.0282 29729.2600 -359.0206 -295.2471
ENERGY: 900000 3.1830 19.0561 6.5562 0.0000 -10534.4272 1438.1725 0.0000 0.0000 1679.7999 -7387.6595 289.4415 -9067.4594 -7324.5666 300.5899 12.1883 74.3250 30074.2013 -125.4246 -73.1305
ENERGY: 1200000 3.9478 16.5839 5.4495 0.0000 -10555.6574 1388.8548 0.0000 0.0000 1707.4735 -7433.3479 294.2098 -9140.8214 -7333.7121 299.6371 -463.0971 -449.6193 29931.9760 -192.2990 -141.4292
ENERGY: 1500000 3.7836 11.6349 7.3928 0.0000 -10487.3985 1403.7109 0.0000 0.0000 1702.5131 -7358.3631 293.3551 -9060.8763 -7335.0015 299.8802 161.6068 230.9519 29708.8908 -186.5675 -128.0626
TCL: Running FEP window  15: Lambda1 0.7000000000000001 Lambda2 0.7500000000000001 [dLambda 0.050000000000000044]
TCL: Setting parameter firsttimestep to 0
TCL: Setting parameter alchLambda to 0.7000000000000001
Info: NONBONDED TABLE R-SQUARED SPACING: 0.0625
Info: NONBONDED TABLE SIZE: 705 POINTS
TCL: Setting parameter alchLambda2 to 0.7500000000000001
Info: NONBONDED TABLE R-SQUARED SPACING: 0.0625
Info: NONBONDED TABLE SIZE: 705 POINTS
TCL: Running for 1500000 steps
ETITLE: TS BOND ANGLE DIHED IMPRP ELECT VDW BOUNDARY MISC KINETIC TOTAL TEMP POTENTIAL TOTALAVG TEMPAVG PRESSURE GPRESSURE VOLUME PRESSAVG GPRESSAVG
ENERGY: 0 3.7836 11.6349 7.3928 0.0000 -10487.6151 1403.3585 0.0000 0.0000 1701.6875 -7359.7578 293.2128 -9061.4453 -7359.7578 293.2128 159.3900 240.8339 29708.8908 159.3900 240.8339
ENERGY: 300000 4.7504 17.9488 3.9733 0.0000 -10405.1835 1365.7300 0.0000 0.0000 1731.3976 -7281.3833 298.3321 -9012.7809 -7293.0683 298.5404 -180.5078 -153.1150 30056.9117 -162.1797 -113.1211
ENERGY: 600000 3.6155 16.9471 4.1542 0.0000 -10482.9945 1354.5708 0.0000 0.0000 1767.2670 -7336.4400 304.5126 -9103.7070 -7306.3473 299.3469 -251.8860 -244.5683 29575.7540 -122.8714 -70.8349
ENERGY: 900000 5.6626 13.9189 4.8361 0.0000 -10529.1905 1388.5631 0.0000 0.0000 1774.1017 -7342.1081 305.6903 -9116.2098 -7314.8280 300.2760 6.1896 51.4012 29648.9974 -38.8064 16.5881
ENERGY: 1200000 3.1736 12.4094 4.9782 0.0000 -10467.6697 1396.2376 0.0000 0.0000 1741.6417 -7309.2292 300.0972 -9050.8709 -7311.4435 299.5625 -153.8537 -94.2416 30199.3594 -15.3078 43.0804
ENERGY: 1500000 3.1089 14.9711 5.1985 0.0000 -10518.6121 1420.3401 0.0000 0.0000 1707.5955 -7367.3980 294.2308 -9074.9935 -7315.3519 298.9683 54.9025 83.3407 30185.3081 -55.0312 2.5381
TCL: Running FEP window  16: Lambda1 0.7500000000000001 Lambda2 0.8000000000000002 [dLambda 0.050000000000000044]
TCL: Setting parameter firsttimestep to 0
TCL: Setting parameter alchLambda to 0.7500000000000001
Info: NONBONDED TABLE R-SQUARED SPACING: 0.0625
Info: NONBONDED TABLE SIZE: 705 POINTS
TCL: Setting parameter alchLambda2 to 0.8000000000000002
Info: NONBONDED TABLE R-SQUARED SPACING: 0.0625
Info: NONBONDED TABLE SIZE: 705 POINTS
TCL: Running for 1500000 steps
ETITLE: TS BOND ANGLE DIHED IMPRP ELECT VDW BOUNDARY MISC KINETIC TOTAL TEMP POTENTIAL TOTALAVG TEMPAVG PRESSURE GPRESSURE VOLUME PRESSAVG GPRESSAVG
ENERGY: 0 3.1089 14.9711 5.1985 0.0000 -10520.0098 1420.0172 0.0000 0.0000 1706.7699 -7369.9444 294.0886 -9076.7143 -7369.9444 294.0886 7.7502 91.1275 30185.3081 7.7502 91.1275
ENERGY: 300000 8.8637 12.6790 4.7942 0.0000 -10577.5796 1476.0663 0.0000 0.0000 1741.0222 -7334.1543 299.9905 -9075.1765 -7365.3337 297.5599 545.7845 622.2365 29979.8511 351.7387 445.7028
ENERGY: 600000 8.4081 24.5104 5.5962 0.0000 -10559.5741 1379.2205 0.0000 0.0000 1796.3903 -7345.4486 309.5308 -9141.8390 -7354.2180 299.9966 -603.8768 -548.6118 29979.4251 276.2852 339.9475
ENERGY: 900000 2.1181 17.6015 4.6247 0.0000 -10387.2384 1334.7912 0.0000 0.0000 1814.6150 -7213.4879 312.6711 -9028.1029 -7336.8949 301.5130 -490.6780 -386.5896 30253.0399 112.6202 171.6429
ENERGY: 1200000 5.6502 17.0887 6.2930 0.0000 -10509.5712 1435.2594 0.0000 0.0000 1695.4430 -7349.8369 292.1369 -9045.2799 -7336.0061 300.9086 191.4309 274.4447 29934.5729 118.8041 185.5943
ENERGY: 1500000 5.1923 20.5565 6.2501 0.0000 -10433.3068 1346.9478 0.0000 0.0000 1741.4116 -7312.9485 300.0576 -9054.3601 -7326.3355 300.7569 -393.0864 -352.4824 29894.1875 38.6632 102.8855
TCL: Running FEP window  17: Lambda1 0.8000000000000002 Lambda2 0.8500000000000002 [dLambda 0.050000000000000044]
TCL: Setting parameter firsttimestep to 0
TCL: Setting parameter alchLambda to 0.8000000000000002
Info: NONBONDED TABLE R-SQUARED SPACING: 0.0625
Info: NONBONDED TABLE SIZE: 705 POINTS
TCL: Setting parameter alchLambda2 to 0.8500000000000002
Info: NONBONDED TABLE R-SQUARED SPACING: 0.0625
Info: NONBONDED TABLE SIZE: 705 POINTS
TCL: Running for 1500000 steps
ETITLE: TS BOND ANGLE DIHED IMPRP ELECT VDW BOUNDARY MISC KINETIC TOTAL TEMP POTENTIAL TOTALAVG TEMPAVG PRESSURE GPRESSURE VOLUME PRESSAVG GPRESSAVG
ENERGY: 0 5.1923 20.5565 6.2501 0.0000 -10434.0952 1347.4782 0.0000 0.0000 1740.5498 -7314.0684 299.9091 -9054.6182 -7314.0684 299.9091 -397.6076 -329.1256 29894.1875 -397.6076 -329.1256
ENERGY: 300000 3.6566 13.9498 7.4009 0.0000 -10393.4493 1328.5195 0.0000 0.0000 1777.7790 -7262.1434 306.3239 -9039.9224 -7310.3402 299.5317 -513.2873 -430.7468 30148.6494 -519.0555 -443.9602
ENERGY: 600000 3.9164 16.7440 7.2611 0.0000 -10468.6704 1337.1867 0.0000 0.0000 1759.5279 -7344.0342 303.1792 -9103.5621 -7318.1678 299.7204 -871.9577 -804.1832 30442.1013 -384.7946 -313.8847
ENERGY: 900000 5.7028 14.5141 3.7439 0.0000 -10453.8303 1392.2016 0.0000 0.0000 1763.6723 -7273.9956 303.8933 -9037.6679 -7322.9483 299.9444 -241.4729 -123.3869 30486.3442 -370.2876 -290.3176
ENERGY: 1200000 4.9978 18.4750 4.5278 0.0000 -10428.8224 1368.8859 0.0000 0.0000 1732.7379 -7299.1980 298.5630 -9031.9359 -7326.7450 299.4660 -620.5268 -570.3952 30798.5154 -266.9454 -195.4665
ENERGY: 1500000 5.5731 16.5578 6.1717 0.0000 -10423.4873 1310.2636 0.0000 0.0000 1709.3233 -7375.5978 294.5286 -9084.9212 -7335.8129 298.8278 -1064.9478 -1021.1423 30344.0956 -224.9990 -160.9053
TCL: Running FEP window  18: Lambda1 0.8500000000000002 Lambda2 0.9000000000000002 [dLambda 0.050000000000000044]
TCL: Setting parameter firsttimestep to 0
TCL: Setting parameter alchLambda to 0.8500000000000002
Info: NONBONDED TABLE R-SQUARED SPACING: 0.0625
Info: NONBONDED TABLE SIZE: 705 POINTS
TCL: Setting parameter alchLambda2 to 0.9000000000000002
Info: NONBONDED TABLE R-SQUARED SPACING: 0.0625
Info: NONBONDED TABLE SIZE: 705 POINTS
TCL: Running for 1500000 steps
ETITLE: TS BOND ANGLE DIHED IMPRP ELECT VDW BOUNDARY MISC KINETIC TOTAL TEMP POTENTIAL TOTALAVG TEMPAVG PRESSURE GPRESSURE VOLUME PRESSAVG GPRESSAVG
ENERGY: 0 5.5731 16.5578 6.1717 0.0000 -10424.2673 1309.7049 0.0000 0.0000 1708.4485 -7377.8114 294.3778 -9086.2598 -7377.8114 294.3778 -1084.1043 -1010.2975 30344.0956 -1084.1043 -1010.2975
ENERGY: 300000 6.5522 13.8712 4.9878 0.0000 -10425.7403 1339.8178 0.0000 0.0000 1802.4391 -7258.0721 310.5731 -9060.5112 -7321.2718 301.0056 -714.3812 -625.5348 30094.3422 -505.2031 -446.2371
ENERGY: 600000 6.1625 19.6039 8.1240 0.0000 -10453.0543 1320.6285 0.0000 0.0000 1697.3596 -7401.1758 292.4671 -9098.5354 -7312.6447 301.5844 -865.6753 -793.1593 30009.7821 -309.3907 -251.4420
ENERGY: 900000 2.7777 12.8882 4.4869 0.0000 -10525.1529 1428.2247 0.0000 0.0000 1765.1946 -7311.5808 304.1556 -9076.7754 -7304.9333 302.3746 122.3290 180.0861 29971.5531 -332.3065 -276.0754
ENERGY: 1200000 2.7839 17.6976 5.2156 0.0000 -10590.7023 1435.3028 0.0000 0.0000 1750.1604 -7379.5419 301.5651 -9129.7023 -7317.2962 301.5729 273.4559 259.5943 29926.3693 -207.1725 -162.3414
ENERGY: 1500000 3.3135 15.2459 4.2744 0.0000 -10427.2086 1370.9448 0.0000 0.0000 1701.1244 -7332.3055 293.1158 -9033.4300 -7318.8510 301.3209 -91.8199 -41.3590 29962.4902 -190.9783 -137.7255
TCL: Running FEP window  19: Lambda1 0.9000000000000002 Lambda2 0.9500000000000003 [dLambda 0.050000000000000044]
TCL: Setting parameter firsttimestep to 0
TCL: Setting parameter alchLambda to 0.9000000000000002
Info: NONBONDED TABLE R-SQUARED SPACING: 0.0625
Info: NONBONDED TABLE SIZE: 705 POINTS
TCL: Setting parameter alchLambda2 to 0.9500000000000003
Info: NONBONDED TABLE R-SQUARED SPACING: 0.0625
Info: NONBONDED TABLE SIZE: 705 POINTS
TCL: Running for 1500000 steps
ETITLE: TS BOND ANGLE DIHED IMPRP ELECT VDW BOUNDARY MISC KINETIC TOTAL TEMP POTENTIAL TOTALAVG TEMPAVG PRESSURE GPRESSURE VOLUME PRESSAVG GPRESSAVG
ENERGY: 0 3.3135 15.2459 4.2744 0.0000 -10429.7914 1371.4890 0.0000 0.0000 1700.2352 -7335.2334 292.9626 -9035.4686 -7335.2334 292.9626 -99.8659 -23.3208 29962.4902 -99.8659 -23.3208
ENERGY: 300000 3.7509 15.1955 3.6961 0.0000 -10557.8001 1420.8713 0.0000 0.0000 1737.7890 -7376.4973 299.4334 -9114.2863 -7361.2533 297.2040 -28.6833 29.9706 30082.5886 -93.8594 -23.4530
ENERGY: 600000 2.4861 18.8133 6.6648 0.0000 -10636.7529 1437.9290 0.0000 0.0000 1720.6634 -7450.1963 296.4825 -9170.8597 -7359.2628 297.6569 215.7720 291.0506 29668.3687 55.6136 128.8565
ENERGY: 900000 4.5585 14.8703 7.2157 0.0000 -10425.2341 1370.2965 0.0000 0.0000 1773.4758 -7254.8173 305.5825 -9028.2931 -7349.8176 298.6119 -17.3888 75.0695 29964.7860 -85.7185 -23.1239
ENERGY: 1200000 3.3505 14.1013 4.8192 0.0000 -10568.6382 1406.3156 0.0000 0.0000 1740.1233 -7399.9284 299.8356 -9140.0517 -7350.3666 298.5596 185.9402 245.3813 29155.4286 -139.9181 -77.6775
ENERGY: 1500000 4.5642 16.2487 9.9802 0.0000 -10356.0953 1309.7042 0.0000 0.0000 1770.1783 -7245.4198 305.0143 -9015.5980 -7346.1280 299.7656 -784.6013 -720.9037 30415.6954 -140.2249 -78.7004
TCL: Running FEP window  20: Lambda1 0.9500000000000003 Lambda2 1.0    [dLambda 0.04999999999999971]
TCL: Setting parameter firsttimestep to 0
TCL: Setting parameter alchLambda to 0.9500000000000003
Info: NONBONDED TABLE R-SQUARED SPACING: 0.0625
Info: NONBONDED TABLE SIZE: 705 POINTS
TCL: Setting parameter alchLambda2 to 1.0
Info: NONBONDED TABLE R-SQUARED SPACING: 0.0625
Info: NONBONDED TABLE SIZE: 705 POINTS
TCL: Running for 1500000 steps
ETITLE: TS BOND ANGLE DIHED IMPRP ELECT VDW BOUNDARY MISC KINETIC TOTAL TEMP POTENTIAL TOTALAVG TEMPAVG PRESSURE GPRESSURE VOLUME PRESSAVG GPRESSAVG
ENERGY: 0 4.5642 16.2487 9.9802 0.0000 -10357.6021 1308.7506 0.0000 0.0000 1769.2971 -7248.7614 304.8625 -9018.0585 -7248.7614 304.8625 -801.8049 -719.4722 30415.6954 -801.8049 -719.4722
ENERGY: 300000 7.7330 16.5794 6.1781 0.0000 -10387.2963 1313.0678 0.0000 0.0000 1704.9544 -7338.7836 293.7757 -9043.7380 -7313.8972 300.0011 -1090.1112 -1014.1328 30473.1813 -740.3117 -650.7914
ENERGY: 600000 5.4817 13.5152 4.5281 0.0000 -10471.4941 1395.3978 0.0000 0.0000 1742.1779 -7310.3933 300.1896 -9052.5712 -7331.1925 299.9797 -225.8161 -127.6621 30283.9580 -416.3691 -347.5131
ENERGY: 900000 5.0601 15.2994 7.8892 0.0000 -10368.9457 1302.5931 0.0000 0.0000 1792.3614 -7245.7426 308.8366 -9038.1039 -7321.7293 300.8907 -642.6424 -555.9912 30024.8518 -383.3794 -321.0646
ENERGY: 1200000 1.0514 16.0506 4.0822 0.0000 -10619.0320 1501.2903 0.0000 0.0000 1646.3281 -7450.2293 283.6740 -9096.5574 -7320.8838 300.4012 714.2487 786.2623 29994.0306 -250.9419 -186.0682
ENERGY: 1500000 6.0937 14.9755 7.1265 0.0000 -10559.3872 1438.9083 0.0000 0.0000 1702.0513 -7390.2319 293.2755 -9092.2832 -7323.9036 300.3899 185.4743 194.0811 29939.0264 -210.0266 -151.8542
TCL: Exiting due to exit command.
