Info: SIMULATION PARAMETERS:
Info: TIMESTEP               2
Info: NUMBER OF STEPS        0
Info: STEPS PER CYCLE        10
Info: PERIODIC CELL BASIS 1  29.9975 0 0
Info: PERIODIC CELL BASIS 2  0 31.569 0
Info: PERIODIC CELL BASIS 3  0 0 31.9396
Info: PERIODIC CELL CENTER   0 0 0
Info: WRAPPING WATERS AROUND PERIODIC BOUNDARIES ON OUTPUT.
Info: WRAPPING ALL CLUSTERS AROUND PERIODIC BOUNDARIES ON OUTPUT.
Info: FIRST LDB TIMESTEP     50
Info: LAST LDB TIMESTEP     -1
Info: HOM BACKGROUND SCALING 1
Info: PME BACKGROUND SCALING 1
Info: MIN ATOMS PER PATCH    40
Info: EMPTY PATCH LOAD       40 ATOMS
Info: VELOCITY FILE          mobley_718988_equil.vel
Info: CENTER OF MASS MOVING INITIALLY? NO
Info: DIELECTRIC             1
Info: EXCLUDE                SCALED ONE-FOUR
Info: 1-4 ELECTROSTATICS SCALED BY 0.833333
Info: MODIFIED 1-4 VDW PARAMETERS WILL BE USED
Info: DCD FILENAME           mobley_718988_prod.dcd
Info: DCD FREQUENCY          100000
Info: DCD FIRST STEP         100000
Info: DCD FILE WILL CONTAIN UNIT CELL DATA
Info: XST FILENAME           mobley_718988_prod.xst
Info: XST FREQUENCY          100000
Info: NO VELOCITY DCD OUTPUT
Info: NO FORCE DCD OUTPUT
Info: OUTPUT FILENAME        mobley_718988_prod
Info: BINARY OUTPUT FILES WILL BE USED
Info: RESTART FILENAME       mobley_718988_prod.restart
Info: RESTART FREQUENCY      100000
Info: BINARY RESTART FILES WILL BE USED
Info: CUTOFF                 9
Info: PAIRLIST DISTANCE      11
Info: PAIRLIST SHRINK RATE   0.01
Info: PAIRLIST GROW RATE     0.01
Info: PAIRLIST TRIGGER       0.3
Info: PAIRLISTS PER CYCLE    2
Info: PAIRLISTS ENABLED
Info: MARGIN                 2
Info: HYDROGEN GROUP CUTOFF  2.5
Info: PATCH DIMENSION        15.5
Info: ENERGY OUTPUT STEPS    100000
Info: ENERGY EVALUATION STEPS    100000
Info: OUTPUT ENERGY PRECISION 4
Info: CROSSTERM ENERGY INCLUDED IN DIHEDRAL
Info: TIMING OUTPUT STEPS    1000000
Info: PRESSURE OUTPUT STEPS  100000
Info: ALCHEMICAL FEP ON
Info: FEP CURRENT LAMBDA VALUE     1
Info: FEP COMPARISON LAMBDA VALUE  0.95
Info: FEP INTRA-ALCHEMICAL NON-BONDED INTERACTIONS WILL BE RETAINED
Info: FEP INTRA-ALCHEMICAL BONDED INTERACTIONS WILL BE RETAINED
Info: FEP VDW SHIFTING COEFFICIENT 5
Info: FEP ELEC. ACTIVE FOR ANNIHILATED PARTICLES BETWEEN LAMBDA = 0 AND LAMBDA = 0.5
Info: FEP ELEC. ACTIVE FOR EXNIHILATED PARTICLES BETWEEN LAMBDA = 0.5 AND LAMBDA = 1
Info: FEP VDW ACTIVE FOR ANNIHILATED PARTICLES BETWEEN LAMBDA = 0 AND LAMBDA = 1
Info: FEP VDW ACTIVE FOR EXNIHILATED PARTICLES BETWEEN LAMBDA = 0 AND LAMBDA = 1
Info: FEP BOND ACTIVE FOR ANNIHILATED PARTICLES BETWEEN LAMBDA = 1 AND LAMBDA = 1
Info: FEP BOND ACTIVE FOR EXNIHILATED PARTICLES BETWEEN LAMBDA = 0 AND LAMBDA = 0
Info: LANGEVIN DYNAMICS ACTIVE
Info: LANGEVIN TEMPERATURE   300
Info: LANGEVIN USING BBK INTEGRATOR
Info: LANGEVIN DAMPING COEFFICIENT IS 1 INVERSE PS
Info: LANGEVIN DYNAMICS APPLIED TO HYDROGENS
Info: LANGEVIN PISTON PRESSURE CONTROL ACTIVE
Info:        TARGET PRESSURE IS 1.01325 BAR
Info:     OSCILLATION PERIOD IS 50 FS
Info:             DECAY TIME IS 25 FS
Info:     PISTON TEMPERATURE IS 300 K
Info:       PRESSURE CONTROL IS GROUP-BASED
Info:    INITIAL STRAIN RATE IS 5.06473e-05 5.06473e-05 5.06473e-05
Info:       CELL FLUCTUATION IS ISOTROPIC
Info: PARTICLE MESH EWALD (PME) ACTIVE
Info: PME TOLERANCE               1e-06
Info: PME EWALD COEFFICIENT       0.348832
Info: PME INTERPOLATION ORDER     4
Info: PME GRID DIMENSIONS         32 32 32
Info: PME MAXIMUM GRID SPACING    1
Info: PME CALCULATION WILL BE PERFORMED ON GPU
Info: FULL ELECTROSTATIC EVALUATION FREQUENCY      2
Info: USING VERLET I (r-RESPA) MTS SCHEME.
Info: C1 SPLITTING OF LONG RANGE ELECTROSTATICS
Info: PLACING ATOMS IN PATCHES BY HYDROGEN GROUPS
Info: RIGID BONDS TO HYDROGEN : ALL
Info:         ERROR TOLERANCE : 1e-08
Info:          MAX ITERATIONS : 100
Info: RIGID WATER USING SETTLE ALGORITHM
Info: RANDOM NUMBER SEED     1744022013
Info: USE HYDROGEN BONDS?    NO
Info: Using AMBER format force field!
Info: AMBER PARM FILE        mobley_718988.prmtop
Info: COORDINATE PDB         mobley_718988.pdb
Info: Exclusions will be read from PARM file!
Info: SCNB (VDW SCALING)     2
Info: USING ARITHMETIC MEAN TO COMBINE L-J SIGMA PARAMETERS
Info: BINARY COORDINATES     mobley_718988_equil.coor
Info: SUMMARY OF PARAMETERS:
Info: 7 BONDS
Info: 9 ANGLES
Info:   9 HARMONIC
Info:   0 COSINE-BASED
Info: 7 DIHEDRAL
Info: 0 IMPROPER
Info: 0 CROSSTERM
Info: 0 VDW
Info: 28 VDW_PAIRS
Info: 0 NBTHOLE_PAIRS
Info: To read alchdata from file: mobley_718988.pdb
Info: To read alchflag data from column: 5
Info: STRUCTURE SUMMARY:
Info: 2956 ATOMS
Info: 2955 BONDS
Info: 45 ANGLES
Info: 68 DIHEDRALS
Info: 0 IMPROPERS
Info: 0 CROSSTERMS
Info: 3060 EXCLUSIONS
Info: 2948 RIGID BONDS
Info: ALCH: 0 ATOMS TO DISAPPEAR IN FINAL STATE
Info: ALCH: 25 ATOMS TO APPEAR IN FINAL STATE
Info: 5920 DEGREES OF FREEDOM
Info: 985 HYDROGEN GROUPS
Info: 4 ATOMS IN LARGEST HYDROGEN GROUP
Info: 985 MIGRATION GROUPS
Info: 4 ATOMS IN LARGEST MIGRATION GROUP
Info: TOTAL MASS = 17716.8 amu
Info: TOTAL CHARGE = -0.000199948 e
Info: MASS DENSITY = 0.972681 g/cm^3
Info: ATOM DENSITY = 0.0977303 atoms/A^3
Info: ADDED 0 IMPLICIT EXCLUSIONS
Info: NONBONDED TABLE R-SQUARED SPACING: 0.0625
Info: NONBONDED TABLE SIZE: 705 POINTS
Info: REMOVING COM VELOCITY 0.109229 0.222046 -0.0783857
Info: Use 3D box decompostion in PME FFT.
Info: Updated CUDA force table with 4096 elements.
Info: Updated CUDA LJ table with 7 x 7 elements.
Info: Found 28 unique exclusion lists needing 96 bytes
TCL: Running for 1500000 steps
ETITLE: TS BOND ANGLE DIHED IMPRP ELECT VDW BOUNDARY MISC KINETIC TOTAL TEMP POTENTIAL TOTALAVG TEMPAVG PRESSURE GPRESSURE VOLUME PRESSAVG GPRESSAVG
ENERGY: 0 1.5369 10.5991 6.1619 0.0000 -10542.1697 1346.1787 0.0000 0.0000 1764.3448 -7413.3484 299.9523 -9177.6931 -7413.3484 299.9523 -417.7351 -322.5084 30246.4998 -417.7351 -322.5084
ENERGY: 300000 1.4215 11.6286 4.7415 0.0000 -10644.5957 1439.2293 0.0000 0.0000 1731.6881 -7455.8867 294.4004 -9187.5748 -7446.6283 300.9540 83.5844 100.6174 30677.7356 -161.1217 -90.3003
ENERGY: 600000 2.0985 9.7517 4.8858 0.0000 -10642.2329 1484.1128 0.0000 0.0000 1793.2692 -7348.1148 304.8696 -9141.3840 -7433.0330 301.7370 562.5180 593.4335 30729.1485 -55.7094 4.0814
ENERGY: 900000 3.3293 16.0434 4.8979 0.0000 -10839.6905 1558.6192 0.0000 0.0000 1799.1967 -7457.6040 305.8774 -9256.8007 -7446.2637 300.8325 1627.7507 1563.7467 29220.2895 88.5291 134.4126
ENERGY: 1200000 2.9440 10.8406 5.1964 0.0000 -10697.8303 1439.0454 0.0000 0.0000 1738.2512 -7501.5528 295.5161 -9239.8039 -7467.6491 300.3874 233.9227 355.4827 29657.0862 32.4619 87.2254
ENERGY: 1500000 3.5219 11.4158 3.5625 0.0000 -10690.8772 1426.1936 0.0000 0.0000 1756.0849 -7490.0983 298.5480 -9246.1833 -7462.4961 301.1143 395.7792 490.3619 29848.5019 29.4951 90.0385
TCL: Running FEP window   2: Lambda1 0.95   Lambda2 0.8999999999999999 [dLambda -0.050000000000000044]
TCL: Setting parameter firsttimestep to 0
TCL: Setting parameter alchLambda to 0.95
Info: NONBONDED TABLE R-SQUARED SPACING: 0.0625
Info: NONBONDED TABLE SIZE: 705 POINTS
TCL: Setting parameter alchLambda2 to 0.8999999999999999
Info: NONBONDED TABLE R-SQUARED SPACING: 0.0625
Info: NONBONDED TABLE SIZE: 705 POINTS
TCL: Running for 1500000 steps
ETITLE: TS BOND ANGLE DIHED IMPRP ELECT VDW BOUNDARY MISC KINETIC TOTAL TEMP POTENTIAL TOTALAVG TEMPAVG PRESSURE GPRESSURE VOLUME PRESSAVG GPRESSAVG
ENERGY: 0 3.5219 11.4158 3.5625 0.0000 -10689.0417 1424.7875 0.0000 0.0000 1755.1983 -7490.5556 298.3973 -9245.7539 -7490.5556 298.3973 377.6298 458.6489 29848.5019 377.6298 458.6489
ENERGY: 300000 3.0873 15.0353 4.3483 0.0000 -10688.1185 1475.5667 0.0000 0.0000 1720.1449 -7469.9360 292.4379 -9190.0809 -7434.0980 303.9722 301.9505 388.8031 30545.3248 -1.6166 62.0992
ENERGY: 600000 0.4378 9.6959 5.4373 0.0000 -10695.7649 1429.8066 0.0000 0.0000 1774.8173 -7475.5701 301.7327 -9250.3873 -7443.5685 302.5394 100.0040 170.7132 30053.2197 -100.3233 -35.1980
ENERGY: 900000 3.4191 9.0509 4.6322 0.0000 -10714.6607 1382.4222 0.0000 0.0000 1757.3368 -7557.7995 298.7608 -9315.1363 -7458.0919 302.6474 -593.6048 -458.8395 30116.0151 -65.0138 11.9996
ENERGY: 1200000 2.2294 12.6515 6.5373 0.0000 -10657.7666 1401.0074 0.0000 0.0000 1781.4489 -7453.8922 302.8601 -9235.3411 -7452.8441 302.1306 -477.1636 -459.3835 30656.5496 -167.2933 -90.3811
ENERGY: 1500000 0.4120 9.9586 3.0451 0.0000 -10652.7964 1454.9689 0.0000 0.0000 1758.4445 -7425.9673 298.9492 -9184.4117 -7449.1462 301.7264 -26.1544 6.0161 31140.4667 -149.5246 -77.3877
TCL: Running FEP window   3: Lambda1 0.8999999999999999 Lambda2 0.8499999999999999 [dLambda -0.050000000000000044]
TCL: Setting parameter firsttimestep to 0
TCL: Setting parameter alchLambda to 0.8999999999999999
Info: NONBONDED TABLE R-SQUARED SPACING: 0.0625
Info: NONBONDED TABLE SIZE: 705 POINTS
TCL: Setting parameter alchLambda2 to 0.8499999999999999
Info: NONBONDED TABLE R-SQUARED SPACING: 0.0625
Info: NONBONDED TABLE SIZE: 705 POINTS
TCL: Running for 1500000 steps
ETITLE: TS BOND ANGLE DIHED IMPRP ELECT VDW BOUNDARY MISC KINETIC TOTAL TEMP POTENTIAL TOTALAVG TEMPAVG PRESSURE GPRESSURE VOLUME PRESSAVG GPRESSAVG
ENERGY: 0 0.4120 9.9586 3.0451 0.0000 -10650.9566 1454.4168 0.0000 0.0000 1757.5839 -7425.5402 298.8029 -9183.1241 -7425.5402 298.8029 -89.1736 -4.9601 31140.4667 -89.1736 -4.9601
ENERGY: 300000 6.0942 14.5569 4.2973 0.0000 -10593.9764 1353.2711 0.0000 0.0000 1786.0668 -7429.6900 303.6452 -9215.7568 -7435.6495 301.9882 -607.1602 -569.7022 30565.1213 -30.9027 39.8357
ENERGY: 600000 2.2248 12.6412 5.5788 0.0000 -10804.7684 1462.7532 0.0000 0.0000 1763.9547 -7557.6157 299.8859 -9321.5704 -7440.7877 301.8369 59.1776 181.7898 29847.3636 -166.2143 -92.4270
ENERGY: 900000 3.5801 11.6948 3.5515 0.0000 -10767.6869 1456.6562 0.0000 0.0000 1737.5809 -7554.6235 295.4022 -9292.2044 -7458.6861 301.3523 -370.6947 -259.4826 30621.6840 -205.9227 -125.9612
ENERGY: 1200000 3.2021 15.4550 7.0188 0.0000 -10465.7192 1356.5818 0.0000 0.0000 1742.8538 -7340.6078 296.2986 -9083.4616 -7445.2930 300.6461 -638.4019 -601.5437 31279.4710 -235.6435 -166.6547
ENERGY: 1500000 2.8038 10.7059 4.4276 0.0000 -10623.7838 1406.1849 0.0000 0.0000 1768.9678 -7430.6937 300.7382 -9199.6616 -7444.0303 301.4677 -75.5231 18.5432 30150.3426 -157.1060 -87.8771
TCL: Running FEP window   4: Lambda1 0.8499999999999999 Lambda2 0.7999999999999998 [dLambda -0.050000000000000044]
TCL: Setting parameter firsttimestep to 0
TCL: Setting parameter alchLambda to 0.8499999999999999
Info: NONBONDED TABLE R-SQUARED SPACING: 0.0625
Info: NONBONDED TABLE SIZE: 705 POINTS
TCL: Setting parameter alchLambda2 to 0.7999999999999998
Info: NONBONDED TABLE R-SQUARED SPACING: 0.0625
Info: NONBONDED TABLE SIZE: 705 POINTS
TCL: Running for 1500000 steps
ETITLE: TS BOND ANGLE DIHED IMPRP ELECT VDW BOUNDARY MISC KINETIC TOTAL TEMP POTENTIAL TOTALAVG TEMPAVG PRESSURE GPRESSURE VOLUME PRESSAVG GPRESSAVG
ENERGY: 0 2.8038 10.7059 4.4276 0.0000 -10622.2199 1404.8152 0.0000 0.0000 1768.0585 -7431.4088 300.5836 -9199.4673 -7431.4088 300.5836 -108.8054 -10.6554 30150.3426 -108.8054 -10.6554
ENERGY: 300000 2.4888 10.9124 8.0937 0.0000 -10732.5131 1435.7467 0.0000 0.0000 1787.7291 -7487.5425 303.9278 -9275.2716 -7482.5207 300.5232 161.6240 279.6744 29953.2674 243.8415 348.0476
ENERGY: 600000 6.0599 13.1304 5.8912 0.0000 -10579.6219 1335.8771 0.0000 0.0000 1719.0670 -7499.5963 292.2547 -9218.6633 -7489.5449 300.2124 -1027.0993 -912.3151 31085.0106 18.6089 109.9697
ENERGY: 900000 1.9367 13.7514 4.2867 0.0000 -10554.6074 1374.3576 0.0000 0.0000 1682.4268 -7477.8482 286.0256 -9160.2750 -7480.5129 297.7706 -354.7859 -290.0257 30535.9004 -1.5216 79.3847
ENERGY: 1200000 0.7533 11.9527 4.6129 0.0000 -10684.0039 1351.3625 0.0000 0.0000 1751.8427 -7563.4798 297.8268 -9315.3225 -7482.5011 298.1345 -1168.4192 -1142.9740 31056.5464 -117.9216 -45.9201
ENERGY: 1500000 2.1951 13.9304 2.8801 0.0000 -10780.1601 1527.3699 0.0000 0.0000 1775.6065 -7458.1780 301.8668 -9233.7845 -7485.4698 297.6333 546.1384 583.1307 30467.6434 -24.3093 45.4920
TCL: Running FEP window   5: Lambda1 0.7999999999999998 Lambda2 0.7499999999999998 [dLambda -0.050000000000000044]
TCL: Setting parameter firsttimestep to 0
TCL: Setting parameter alchLambda to 0.7999999999999998
Info: NONBONDED TABLE R-SQUARED SPACING: 0.0625
Info: NONBONDED TABLE SIZE: 705 POINTS
TCL: Setting parameter alchLambda2 to 0.7499999999999998
Info: NONBONDED TABLE R-SQUARED SPACING: 0.0625
Info: NONBONDED TABLE SIZE: 705 POINTS
TCL: Running for 1500000 steps
ETITLE: TS BOND ANGLE DIHED IMPRP ELECT VDW BOUNDARY MISC KINETIC TOTAL TEMP POTENTIAL TOTALAVG TEMPAVG PRESSURE GPRESSURE VOLUME PRESSAVG GPRESSAVG
ENERGY: 0 2.1951 13.9304 2.8801 0.0000 -10779.6809 1526.9647 0.0000 0.0000 1774.7495 -7458.9610 301.7211 -9233.7105 -7458.9610 301.7211 488.4304 566.4804 30467.6434 488.4304 566.4804
ENERGY: 300000 2.0821 12.3292 4.2865 0.0000 -10628.2955 1400.3223 0.0000 0.0000 1797.7328 -7411.5427 305.6285 -9209.2755 -7422.1767 304.5994 -81.8270 -74.1220 30176.4860 256.2809 275.4604
ENERGY: 600000 1.2204 12.1857 4.2278 0.0000 -10774.8045 1466.7386 0.0000 0.0000 1751.3371 -7539.0949 297.7409 -9290.4320 -7449.4041 302.5487 355.1727 376.9460 29923.7759 183.7720 214.9911
ENERGY: 900000 1.2596 8.2497 5.2741 0.0000 -10719.7197 1447.9317 0.0000 0.0000 1745.5848 -7511.4199 296.7629 -9257.0047 -7449.0533 302.4018 186.1020 298.3132 30144.1001 27.7772 78.7224
ENERGY: 1200000 5.4592 13.2128 6.3383 0.0000 -10659.6300 1399.0579 0.0000 0.0000 1725.3863 -7510.1755 293.3290 -9235.5617 -7454.0616 301.1032 -375.9526 -325.5959 30334.3706 35.5162 90.0584
ENERGY: 1500000 4.4766 13.8484 2.3527 0.0000 -10644.2930 1359.4045 0.0000 0.0000 1717.6536 -7546.5572 292.0144 -9264.2108 -7461.8688 299.9282 -1072.7346 -989.2765 30826.7876 -58.7067 -2.8547
TCL: Running FEP window   6: Lambda1 0.7499999999999998 Lambda2 0.6999999999999997 [dLambda -0.050000000000000044]
TCL: Setting parameter firsttimestep to 0
TCL: Setting parameter alchLambda to 0.7499999999999998
Info: NONBONDED TABLE R-SQUARED SPACING: 0.0625
Info: NONBONDED TABLE SIZE: 705 POINTS
TCL: Setting parameter alchLambda2 to 0.6999999999999997
Info: NONBONDED TABLE R-SQUARED SPACING: 0.0625
Info: NONBONDED TABLE SIZE: 705 POINTS
TCL: Running for 1500000 steps
ETITLE: TS BOND ANGLE DIHED IMPRP ELECT VDW BOUNDARY MISC KINETIC TOTAL TEMP POTENTIAL TOTALAVG TEMPAVG PRESSURE GPRESSURE VOLUME PRESSAVG GPRESSAVG
ENERGY: 0 4.4766 13.8484 2.3527 0.0000 -10643.3148 1359.4227 0.0000 0.0000 1716.7764 -7546.4380 291.8653 -9263.2144 -7546.4380 291.8653 -1074.3613 -1001.7267 30826.7876 -1074.3613 -1001.7267
ENERGY: 300000 1.0463 15.2828 3.7271 0.0000 -10588.5319 1374.3710 0.0000 0.0000 1796.1135 -7397.9912 305.3532 -9194.1047 -7472.8319 301.5840 -274.3267 -235.6961 30454.3001 -305.4535 -247.2314
ENERGY: 600000 2.8883 8.0207 4.7018 0.0000 -10808.4101 1499.4591 0.0000 0.0000 1765.3144 -7528.0257 300.1171 -9293.3401 -7458.8704 302.1359 200.2582 299.5008 30229.0196 -191.2282 -121.9432
ENERGY: 900000 1.6391 8.2665 2.8945 0.0000 -10593.5772 1398.0797 0.0000 0.0000 1715.9608 -7466.7366 291.7266 -9182.6974 -7453.6221 300.9640 -157.4200 -136.3529 30169.6957 -140.4956 -85.4480
ENERGY: 1200000 1.7095 7.0701 3.2707 0.0000 -10654.6033 1411.4154 0.0000 0.0000 1773.1740 -7457.9637 301.4533 -9231.1377 -7441.0180 301.7345 -56.6435 -44.3337 30509.5437 -103.6567 -55.0563
ENERGY: 1500000 0.6758 10.0625 2.6435 0.0000 -10670.3082 1396.4507 0.0000 0.0000 1801.9241 -7458.5516 306.3410 -9260.4757 -7446.6857 301.8172 -220.9067 -127.6297 30163.8192 -77.3568 -24.7047
TCL: Running FEP window   7: Lambda1 0.6999999999999997 Lambda2 0.6499999999999997 [dLambda -0.050000000000000044]
TCL: Setting parameter firsttimestep to 0
TCL: Setting parameter alchLambda to 0.6999999999999997
Info: NONBONDED TABLE R-SQUARED SPACING: 0.0625
Info: NONBONDED TABLE SIZE: 705 POINTS
TCL: Setting parameter alchLambda2 to 0.6499999999999997
Info: NONBONDED TABLE R-SQUARED SPACING: 0.0625
Info: NONBONDED TABLE SIZE: 705 POINTS
TCL: Running for 1500000 steps
ETITLE: TS BOND ANGLE DIHED IMPRP ELECT VDW BOUNDARY MISC KINETIC TOTAL TEMP POTENTIAL TOTALAVG TEMPAVG PRESSURE GPRESSURE VOLUME PRESSAVG GPRESSAVG
ENERGY: 0 0.6758 10.0625 2.6435 0.0000 -10669.0173 1395.5197 0.0000 0.0000 1801.0821 -7459.0338 306.1979 -9260.1159 -7459.0338 306.1979 -230.8971 -147.9103 30163.8192 -230.8971 -147.9103
ENERGY: 300000 2.0729 11.1232 3.9129 0.0000 -10601.8783 1409.6379 0.0000 0.0000 1757.7276 -7417.4039 298.8273 -9175.1315 -7459.0705 300.1775 -358.4166 -264.0580 30887.0194 -394.1904 -321.1753
ENERGY: 600000 3.0580 10.3477 6.2871 0.0000 -10754.7250 1514.7598 0.0000 0.0000 1747.1814 -7473.0910 297.0343 -9220.2724 -7464.4576 299.6374 589.2289 625.9068 30293.4921 -95.7850 -37.2261
ENERGY: 900000 2.2841 8.9219 3.4711 0.0000 -10641.1593 1431.5923 0.0000 0.0000 1759.4336 -7435.4564 299.1173 -9194.8900 -7461.3448 299.7301 366.1435 387.0028 29816.1750 -15.6714 38.3134
ENERGY: 1200000 2.7033 11.9349 4.3830 0.0000 -10545.7394 1336.3782 0.0000 0.0000 1793.6456 -7396.6943 304.9336 -9190.3399 -7459.2476 300.7206 -563.9070 -537.8460 30152.7970 -78.0346 -21.0481
ENERGY: 1500000 0.6129 8.4552 2.8657 0.0000 -10603.7192 1450.1263 0.0000 0.0000 1732.2362 -7409.4229 294.4935 -9141.6590 -7457.6708 300.3367 292.2369 375.8752 30448.5456 -30.6128 30.7501
TCL: Running FEP window   8: Lambda1 0.6499999999999997 Lambda2 0.5999999999999996 [dLambda -0.050000000000000044]
TCL: Setting parameter firsttimestep to 0
TCL: Setting parameter alchLambda to 0.6499999999999997
Info: NONBONDED TABLE R-SQUARED SPACING: 0.0625
Info: NONBONDED TABLE SIZE: 705 POINTS
TCL: Setting parameter alchLambda2 to 0.5999999999999996
Info: NONBONDED TABLE R-SQUARED SPACING: 0.0625
Info: NONBONDED TABLE SIZE: 705 POINTS
TCL: Running for 1500000 steps
ETITLE: TS BOND ANGLE DIHED IMPRP ELECT VDW BOUNDARY MISC KINETIC TOTAL TEMP POTENTIAL TOTALAVG TEMPAVG PRESSURE GPRESSURE VOLUME PRESSAVG GPRESSAVG
ENERGY: 0 0.6129 8.4552 2.8657 0.0000 -10602.9055 1450.4226 0.0000 0.0000 1731.3333 -7409.2157 294.3401 -9140.5491 -7409.2157 294.3401 287.0372 371.6324 30448.5456 287.0372 371.6324
ENERGY: 300000 2.6369 7.1958 3.0005 0.0000 -10576.2736 1341.0609 0.0000 0.0000 1786.3838 -7435.9957 303.6991 -9222.3795 -7447.4488 297.7485 -894.8800 -834.1179 30693.8358 -158.5497 -82.9747
ENERGY: 600000 0.9086 13.7164 4.1284 0.0000 -10601.5931 1336.3526 0.0000 0.0000 1780.1845 -7466.3025 302.6451 -9246.4871 -7430.5987 299.2716 -844.4502 -801.7272 30715.5439 -224.9858 -164.7442
ENERGY: 900000 2.0139 6.6913 3.1895 0.0000 -10576.9773 1347.9498 0.0000 0.0000 1789.5484 -7427.5843 304.2371 -9217.1327 -7424.3954 301.3249 -441.3508 -429.7814 30023.6078 -105.0559 -50.3189
ENERGY: 1200000 2.5290 7.6505 3.8543 0.0000 -10528.6563 1341.0126 0.0000 0.0000 1781.1164 -7392.4935 302.8036 -9173.6099 -7426.9986 301.1316 -731.9182 -668.7842 30754.3536 -38.7687 19.7607
ENERGY: 1500000 1.9735 8.5080 4.0345 0.0000 -10597.9231 1400.0601 0.0000 0.0000 1800.0312 -7383.3158 306.0192 -9183.3470 -7426.4499 301.8436 -230.0263 -153.1587 30670.8538 -15.3671 43.1089
TCL: Running FEP window   9: Lambda1 0.5999999999999996 Lambda2 0.5499999999999996 [dLambda -0.050000000000000044]
TCL: Setting parameter firsttimestep to 0
TCL: Setting parameter alchLambda to 0.5999999999999996
Info: NONBONDED TABLE R-SQUARED SPACING: 0.0625
Info: NONBONDED TABLE SIZE: 705 POINTS
TCL: Setting parameter alchLambda2 to 0.5499999999999996
Info: NONBONDED TABLE R-SQUARED SPACING: 0.0625
Info: NONBONDED TABLE SIZE: 705 POINTS
TCL: Running for 1500000 steps
ETITLE: TS BOND ANGLE DIHED IMPRP ELECT VDW BOUNDARY MISC KINETIC TOTAL TEMP POTENTIAL TOTALAVG TEMPAVG PRESSURE GPRESSURE VOLUME PRESSAVG GPRESSAVG
ENERGY: 0 1.9735 8.5080 4.0345 0.0000 -10596.8706 1400.6398 0.0000 0.0000 1799.1588 -7382.5560 305.8709 -9181.7148 -7382.5560 305.8709 -235.0361 -152.0791 30670.8538 -235.0361 -152.0791
ENERGY: 300000 2.5328 10.5014 2.8273 0.0000 -10671.7079 1439.2216 0.0000 0.0000 1800.7251 -7415.8997 306.1372 -9216.6248 -7421.8498 303.5641 -108.2570 -69.1181 30721.2943 -184.1308 -111.3446
ENERGY: 600000 2.4334 11.7568 3.4170 0.0000 -10648.8112 1434.1286 0.0000 0.0000 1812.5201 -7384.5553 308.1424 -9197.0754 -7429.7097 303.7421 -50.3406 23.6733 30582.0806 -43.9323 20.3595
ENERGY: 900000 1.9181 10.2037 3.1194 0.0000 -10706.6660 1458.4952 0.0000 0.0000 1713.7356 -7519.1940 291.3483 -9232.9296 -7442.9254 301.9539 132.4007 179.7505 30584.6285 -52.2662 2.8340
ENERGY: 1200000 1.9605 10.6297 5.7809 0.0000 -10817.5546 1476.5869 0.0000 0.0000 1770.7197 -7551.8769 301.0360 -9322.5966 -7447.8557 302.2066 236.2865 293.4757 29587.9733 -44.7437 4.1026
ENERGY: 1500000 2.5408 11.8023 3.5091 0.0000 -10726.3582 1497.0072 0.0000 0.0000 1755.7500 -7455.7487 298.4911 -9211.4987 -7444.8268 302.0917 434.9735 462.8471 30464.2703 -30.9399 18.5185
TCL: Running FEP window  10: Lambda1 0.5499999999999996 Lambda2 0.4999999999999996 [dLambda -0.04999999999999999]
TCL: Setting parameter firsttimestep to 0
TCL: Setting parameter alchLambda to 0.5499999999999996
Info: NONBONDED TABLE R-SQUARED SPACING: 0.0625
Info: NONBONDED TABLE SIZE: 705 POINTS
TCL: Setting parameter alchLambda2 to 0.4999999999999996
Info: NONBONDED TABLE R-SQUARED SPACING: 0.0625
Info: NONBONDED TABLE SIZE: 705 POINTS
TCL: Running for 1500000 steps
ETITLE: TS BOND ANGLE DIHED IMPRP ELECT VDW BOUNDARY MISC KINETIC TOTAL TEMP POTENTIAL TOTALAVG TEMPAVG PRESSURE GPRESSURE VOLUME PRESSAVG GPRESSAVG
ENERGY: 0 2.5408 11.8024 3.5091 0.0000 -10726.5189 1496.9287 0.0000 0.0000 1754.8538 -7456.8840 298.3387 -9211.7378 -7456.8840 298.3387 361.2216 452.8558 30464.2703 361.2216 452.8558
ENERGY: 300000 0.7955 11.6185 3.1882 0.0000 -10664.4553 1438.9142 0.0000 0.0000 1763.6976 -7446.2412 299.8422 -9209.9388 -7456.9264 300.0374 -231.7990 -164.5883 30855.9787 217.2446 269.9331
ENERGY: 600000 3.0238 10.0987 3.8423 0.0000 -10592.2442 1403.8215 0.0000 0.0000 1661.8104 -7509.6474 282.5206 -9171.4578 -7467.3708 296.5235 -511.5926 -384.2081 30758.2781 48.8556 121.6569
ENERGY: 900000 3.2663 11.8062 4.4038 0.0000 -10662.5133 1486.0949 0.0000 0.0000 1774.7689 -7382.1731 301.7244 -9156.9420 -7454.6244 299.6547 447.8894 560.7460 30340.5010 129.3620 208.9358
ENERGY: 1200000 2.6029 17.2342 7.4122 0.0000 -10629.3838 1382.0787 0.0000 0.0000 1774.0049 -7446.0509 301.5946 -9220.0559 -7451.8311 299.7247 -421.7379 -356.0615 30349.9310 176.8093 248.6602
ENERGY: 1500000 1.5859 12.2328 3.4794 0.0000 -10577.8247 1391.5206 0.0000 0.0000 1765.9262 -7403.0797 300.2211 -9169.0060 -7448.1438 299.8845 -22.5156 71.7120 30060.1521 91.5749 170.4454
TCL: Running FEP window  11: Lambda1 0.4999999999999996 Lambda2 0.4499999999999996 [dLambda -0.04999999999999999]
TCL: Setting parameter firsttimestep to 0
TCL: Setting parameter alchLambda to 0.4999999999999996
Info: NONBONDED TABLE R-SQUARED SPACING: 0.0625
Info: NONBONDED TABLE SIZE: 705 POINTS
TCL: Setting parameter alchLambda2 to 0.4499999999999996
Info: NONBONDED TABLE R-SQUARED SPACING: 0.0625
Info: NONBONDED TABLE SIZE: 705 POINTS
TCL: Running for 1500000 steps
ETITLE: TS BOND ANGLE DIHED IMPRP ELECT VDW BOUNDARY MISC KINETIC TOTAL TEMP POTENTIAL TOTALAVG TEMPAVG PRESSURE GPRESSURE VOLUME PRESSAVG GPRESSAVG
ENERGY: 0 1.5859 12.2328 3.4794 0.0000 -10578.1954 1391.9076 0.0000 0.0000 1765.0578 -7403.9319 300.0735 -9168.9896 -7403.9319 300.0735 -10.5878 64.9656 30060.1521 -10.5878 64.9656
ENERGY: 300000 1.6356 10.6320 3.9069 0.0000 -10729.3294 1471.0401 0.0000 0.0000 1787.5383 -7454.5765 303.8953 -9242.1148 -7465.0272 301.8396 266.9152 261.1480 30436.4072 322.7904 368.2388
ENERGY: 600000 2.4052 11.0630 4.5391 0.0000 -10742.1930 1549.6613 0.0000 0.0000 1703.5507 -7470.9737 289.6168 -9174.5244 -7455.3668 299.9523 995.7509 1077.0405 30026.7811 349.6527 414.6799
ENERGY: 900000 3.2767 14.0761 3.3549 0.0000 -10677.2390 1425.4450 0.0000 0.0000 1787.0477 -7444.0386 303.8119 -9231.0863 -7456.7174 300.5330 -28.4978 -15.2031 30142.6631 185.0745 253.9435
ENERGY: 1200000 2.7035 14.9016 3.1290 0.0000 -10544.9146 1399.7701 0.0000 0.0000 1818.1112 -7306.2992 309.0930 -9124.4104 -7449.0297 300.9636 13.5291 62.3559 30486.5062 96.2403 159.9166
ENERGY: 1500000 3.1661 8.1062 3.8406 0.0000 -10742.1978 1468.3738 0.0000 0.0000 1751.6907 -7507.0205 297.8010 -9258.7112 -7450.3534 300.7521 509.9033 527.2702 29810.2101 67.6215 131.1017
TCL: Running FEP window  12: Lambda1 0.4499999999999996 Lambda2 0.39999999999999963 [dLambda -0.04999999999999999]
TCL: Setting parameter firsttimestep to 0
TCL: Setting parameter alchLambda to 0.4499999999999996
Info: NONBONDED TABLE R-SQUARED SPACING: 0.0625
Info: NONBONDED TABLE SIZE: 705 POINTS
TCL: Setting parameter alchLambda2 to 0.39999999999999963
Info: NONBONDED TABLE R-SQUARED SPACING: 0.0625
Info: NONBONDED TABLE SIZE: 705 POINTS
TCL: Running for 1500000 steps
ETITLE: TS BOND ANGLE DIHED IMPRP ELECT VDW BOUNDARY MISC KINETIC TOTAL TEMP POTENTIAL TOTALAVG TEMPAVG PRESSURE GPRESSURE VOLUME PRESSAVG GPRESSAVG
ENERGY: 0 3.1660 8.1062 3.8406 0.0000 -10742.1964 1468.9996 0.0000 0.0000 1750.7618 -7507.3222 297.6430 -9258.0840 -7507.3222 297.6430 433.1705 524.7001 29810.2101 433.1705 524.7001
ENERGY: 300000 1.5106 10.3919 7.9070 0.0000 -10624.3147 1402.0644 0.0000 0.0000 1835.9258 -7366.5151 312.1216 -9202.4408 -7436.7536 301.7819 -364.4547 -317.0483 30983.3189 391.3075 446.6918
ENERGY: 600000 0.9952 7.2953 2.8372 0.0000 -10604.7750 1360.2395 0.0000 0.0000 1733.1968 -7500.2110 294.6569 -9233.4078 -7428.7509 301.1745 -499.0895 -448.0618 30257.3933 194.1199 253.9258
ENERGY: 900000 2.5309 12.6459 3.1967 0.0000 -10499.6429 1352.4247 0.0000 0.0000 1767.4519 -7361.3928 300.4805 -9128.8447 -7427.5575 301.4407 -510.0408 -408.7919 30429.6613 71.7112 138.4299
ENERGY: 1200000 2.1313 8.6889 4.9106 0.0000 -10724.1703 1494.3740 0.0000 0.0000 1723.8153 -7490.2502 293.0619 -9214.0655 -7434.5738 300.2319 478.4237 502.0714 30267.2989 55.3038 119.7057
ENERGY: 1500000 0.7314 13.0577 4.1814 0.0000 -10638.7500 1412.1522 0.0000 0.0000 1773.2398 -7435.3876 301.4645 -9208.6274 -7438.6775 299.6481 -199.5734 -171.7239 30511.7948 -30.6132 23.5905
TCL: Running FEP window  13: Lambda1 0.39999999999999963 Lambda2 0.34999999999999964 [dLambda -0.04999999999999999]
TCL: Setting parameter firsttimestep to 0
TCL: Setting parameter alchLambda to 0.39999999999999963
Info: NONBONDED TABLE R-SQUARED SPACING: 0.0625
Info: NONBONDED TABLE SIZE: 705 POINTS
TCL: Setting parameter alchLambda2 to 0.34999999999999964
Info: NONBONDED TABLE R-SQUARED SPACING: 0.0625
Info: NONBONDED TABLE SIZE: 705 POINTS
TCL: Running for 1500000 steps
ETITLE: TS BOND ANGLE DIHED IMPRP ELECT VDW BOUNDARY MISC KINETIC TOTAL TEMP POTENTIAL TOTALAVG TEMPAVG PRESSURE GPRESSURE VOLUME PRESSAVG GPRESSAVG
ENERGY: 0 0.7314 13.0577 4.1814 0.0000 -10638.7500 1412.7095 0.0000 0.0000 1772.3381 -7435.7318 301.3112 -9208.0700 -7435.7318 301.3112 -243.1419 -171.0830 30511.7948 -243.1419 -171.0830
ENERGY: 300000 1.9119 15.7293 3.7691 0.0000 -10723.4501 1397.8882 0.0000 0.0000 1792.3052 -7511.8464 304.7057 -9304.1516 -7444.2306 305.2585 -572.9490 -504.0198 30200.7778 -272.8191 -181.1449
ENERGY: 600000 1.1792 8.4862 5.2227 0.0000 -10659.5824 1385.1019 0.0000 0.0000 1795.5606 -7464.0317 305.2592 -9259.5923 -7442.2505 303.9639 -337.6160 -295.3400 29893.8681 -188.1644 -119.8444
ENERGY: 900000 0.5229 12.6395 3.7599 0.0000 -10585.5510 1388.9383 0.0000 0.0000 1744.8243 -7434.8660 296.6336 -9179.6904 -7439.4811 302.7066 -452.4121 -361.2346 30609.9218 -112.9817 -47.4302
ENERGY: 1200000 1.9920 7.9751 4.0129 0.0000 -10747.9066 1472.0311 0.0000 0.0000 1784.4471 -7477.4483 303.3698 -9261.8954 -7440.0563 303.8367 25.9085 103.7206 30457.1703 -0.0173 60.1402
ENERGY: 1500000 3.0839 15.5261 3.9813 0.0000 -10520.8066 1339.8886 0.0000 0.0000 1734.7345 -7423.5923 294.9183 -9158.3268 -7443.3652 302.5731 -698.4758 -583.7699 30329.3995 -44.2928 20.2483
TCL: Running FEP window  14: Lambda1 0.34999999999999964 Lambda2 0.29999999999999966 [dLambda -0.04999999999999999]
TCL: Setting parameter firsttimestep to 0
TCL: Setting parameter alchLambda to 0.34999999999999964
Info: NONBONDED TABLE R-SQUARED SPACING: 0.0625
Info: NONBONDED TABLE SIZE: 705 POINTS
TCL: Setting parameter alchLambda2 to 0.29999999999999966
Info: NONBONDED TABLE R-SQUARED SPACING: 0.0625
Info: NONBONDED TABLE SIZE: 705 POINTS
TCL: Running for 1500000 steps
ETITLE: TS BOND ANGLE DIHED IMPRP ELECT VDW BOUNDARY MISC KINETIC TOTAL TEMP POTENTIAL TOTALAVG TEMPAVG PRESSURE GPRESSURE VOLUME PRESSAVG GPRESSAVG
ENERGY: 0 3.0839 15.5261 3.9813 0.0000 -10520.8052 1340.3392 0.0000 0.0000 1733.8972 -7423.9775 294.7759 -9157.8747 -7423.9775 294.7759 -664.8482 -588.1960 30329.3995 -664.8482 -588.1960
ENERGY: 300000 0.8541 15.6054 4.7729 0.0000 -10741.3832 1436.4540 0.0000 0.0000 1788.0527 -7495.6441 303.9828 -9283.6968 -7437.9394 300.9196 72.0095 146.5248 29818.2799 -195.9286 -132.1638
ENERGY: 600000 3.0856 9.8391 4.0488 0.0000 -10575.0560 1363.5599 0.0000 0.0000 1722.7595 -7471.7631 292.8824 -9194.5226 -7461.7740 297.8764 -565.6015 -495.6226 30077.7403 -264.1887 -200.7279
ENERGY: 900000 2.8697 12.1813 3.9131 0.0000 -10660.0580 1442.0643 0.0000 0.0000 1789.7262 -7409.3035 304.2673 -9199.0297 -7462.5183 299.6154 -49.9283 -6.2964 30327.5087 -38.1952 25.7709
ENERGY: 1200000 2.6428 11.0181 3.1746 0.0000 -10748.8727 1376.9028 0.0000 0.0000 1833.1687 -7521.9656 311.6529 -9355.1344 -7452.0655 301.3290 -935.6130 -858.6431 30294.6757 -145.8398 -78.8102
ENERGY: 1500000 1.3867 10.3171 4.1838 0.0000 -10614.4642 1423.3627 0.0000 0.0000 1787.7903 -7387.4236 303.9382 -9175.2139 -7448.1082 300.9379 4.7158 127.0789 30352.5860 -182.8846 -112.9694
TCL: Running FEP window  15: Lambda1 0.29999999999999966 Lambda2 0.24999999999999967 [dLambda -0.04999999999999999]
TCL: Setting parameter firsttimestep to 0
TCL: Setting parameter alchLambda to 0.29999999999999966
Info: NONBONDED TABLE R-SQUARED SPACING: 0.0625
Info: NONBONDED TABLE SIZE: 705 POINTS
TCL: Setting parameter alchLambda2 to 0.24999999999999967
Info: NONBONDED TABLE R-SQUARED SPACING: 0.0625
Info: NONBONDED TABLE SIZE: 705 POINTS
TCL: Running for 1500000 steps
ETITLE: TS BOND ANGLE DIHED IMPRP ELECT VDW BOUNDARY MISC KINETIC TOTAL TEMP POTENTIAL TOTALAVG TEMPAVG PRESSURE GPRESSURE VOLUME PRESSAVG GPRESSAVG
ENERGY: 0 1.3867 10.3171 4.1838 0.0000 -10614.4639 1423.2216 0.0000 0.0000 1786.9018 -7388.4529 303.7871 -9175.3547 -7388.4529 303.7871 38.5730 119.6906 30352.5860 38.5730 119.6906
ENERGY: 300000 5.3812 12.4928 5.1362 0.0000 -10667.2928 1421.7903 0.0000 0.0000 1766.3139 -7456.1784 300.2870 -9222.4923 -7416.6678 303.3871 -217.4537 -220.8479 30254.2461 -434.6893 -376.7320
ENERGY: 600000 2.3345 10.6631 2.8181 0.0000 -10735.3764 1505.1882 0.0000 0.0000 1734.5922 -7479.7803 294.8941 -9214.3725 -7411.8303 302.9532 609.8302 636.4823 30396.2210 -130.2681 -72.1678
ENERGY: 900000 1.7087 14.1709 4.2069 0.0000 -10659.5007 1415.1545 0.0000 0.0000 1741.5825 -7482.6771 296.0825 -9224.2597 -7428.1738 302.0856 -308.8581 -269.3510 30638.6722 -148.5937 -87.5003
ENERGY: 1200000 6.6989 11.0516 5.7046 0.0000 -10770.6046 1434.3639 0.0000 0.0000 1759.7798 -7553.0057 299.1762 -9312.7855 -7438.3484 301.8237 -382.1309 -253.9328 30329.8378 -223.4306 -157.0919
ENERGY: 1500000 1.8727 11.9856 5.4379 0.0000 -10646.8650 1420.1150 0.0000 0.0000 1779.9460 -7427.5078 302.6046 -9207.4538 -7440.0728 301.1437 -306.2549 -233.5306 30643.9361 -207.1717 -141.8766
TCL: Running FEP window  16: Lambda1 0.24999999999999967 Lambda2 0.19999999999999968 [dLambda -0.04999999999999999]
TCL: Setting parameter firsttimestep to 0
TCL: Setting parameter alchLambda to 0.24999999999999967
Info: NONBONDED TABLE R-SQUARED SPACING: 0.0625
Info: NONBONDED TABLE SIZE: 705 POINTS
TCL: Setting parameter alchLambda2 to 0.19999999999999968
Info: NONBONDED TABLE R-SQUARED SPACING: 0.0625
Info: NONBONDED TABLE SIZE: 705 POINTS
TCL: Running for 1500000 steps
ETITLE: TS BOND ANGLE DIHED IMPRP ELECT VDW BOUNDARY MISC KINETIC TOTAL TEMP POTENTIAL TOTALAVG TEMPAVG PRESSURE GPRESSURE VOLUME PRESSAVG GPRESSAVG
ENERGY: 0 1.8727 11.9856 5.4379 0.0000 -10646.8647 1420.1507 0.0000 0.0000 1779.0849 -7428.3330 302.4582 -9207.4178 -7428.3330 302.4582 -316.3114 -239.6168 30643.9361 -316.3114 -239.6168
ENERGY: 300000 2.5546 9.5686 3.2363 0.0000 -10731.8008 1416.7046 0.0000 0.0000 1792.8433 -7506.8935 304.7972 -9299.7368 -7435.6375 304.2114 -375.0960 -341.2134 30079.3750 -311.8516 -246.5905
ENERGY: 600000 2.9170 13.3103 3.0912 0.0000 -10494.5876 1363.8047 0.0000 0.0000 1787.7633 -7323.7012 303.9336 -9111.4644 -7434.6558 302.0256 -406.2320 -361.5326 30606.2732 -369.8870 -314.6300
ENERGY: 900000 1.3883 9.4374 2.9245 0.0000 -10713.3747 1517.2205 0.0000 0.0000 1792.7453 -7389.6588 304.7806 -9182.4041 -7431.3631 301.8689 655.2373 699.3103 30237.0205 -169.8446 -106.4077
ENERGY: 1200000 2.8333 12.3667 3.2855 0.0000 -10722.9851 1471.0155 0.0000 0.0000 1790.6344 -7442.8496 304.4217 -9233.4840 -7438.5741 302.2534 192.1406 273.5505 30302.3792 -212.8912 -150.0658
ENERGY: 1500000 1.8712 15.9076 2.6687 0.0000 -10598.2729 1418.8015 0.0000 0.0000 1713.0719 -7445.9521 291.2355 -9159.0240 -7438.5111 300.9621 13.1107 81.7915 30218.0712 -206.5257 -140.6107
TCL: Running FEP window  17: Lambda1 0.19999999999999968 Lambda2 0.1499999999999997 [dLambda -0.04999999999999999]
TCL: Setting parameter firsttimestep to 0
TCL: Setting parameter alchLambda to 0.19999999999999968
Info: NONBONDED TABLE R-SQUARED SPACING: 0.0625
Info: NONBONDED TABLE SIZE: 705 POINTS
TCL: Setting parameter alchLambda2 to 0.1499999999999997
Info: NONBONDED TABLE R-SQUARED SPACING: 0.0625
Info: NONBONDED TABLE SIZE: 705 POINTS
TCL: Running for 1500000 steps
ETITLE: TS BOND ANGLE DIHED IMPRP ELECT VDW BOUNDARY MISC KINETIC TOTAL TEMP POTENTIAL TOTALAVG TEMPAVG PRESSURE GPRESSURE VOLUME PRESSAVG GPRESSAVG
ENERGY: 0 1.8712 15.9076 2.6687 0.0000 -10598.2734 1418.5450 0.0000 0.0000 1712.1649 -7447.1160 291.0813 -9159.2809 -7447.1160 291.0813 -11.3327 71.2175 30218.0712 -11.3327 71.2175
ENERGY: 300000 1.9634 8.1542 3.6380 0.0000 -10540.4938 1368.6838 0.0000 0.0000 1814.4327 -7343.6217 308.4676 -9158.0545 -7413.6836 303.9296 -300.0477 -128.6130 29979.1317 276.7850 331.1560
ENERGY: 600000 0.8308 14.8170 4.6194 0.0000 -10652.6513 1455.4581 0.0000 0.0000 1684.1055 -7492.8204 286.3110 -9176.9260 -7443.6456 299.6503 -90.7721 -11.7823 30760.4348 147.0838 211.5129
ENERGY: 900000 1.2458 14.0949 4.6736 0.0000 -10742.8001 1502.7011 0.0000 0.0000 1734.4416 -7485.6431 294.8685 -9220.0847 -7449.1929 299.4112 516.5342 548.3807 30226.6865 144.7300 212.3456
ENERGY: 1200000 2.2740 9.7533 5.1471 0.0000 -10650.2520 1408.3312 0.0000 0.0000 1788.5380 -7436.2084 304.0653 -9224.7464 -7452.5247 299.0247 -335.8936 -271.2881 30314.6925 115.4208 185.7323
ENERGY: 1500000 3.0533 12.9502 5.4845 0.0000 -10608.8786 1419.4601 0.0000 0.0000 1729.0577 -7438.8728 293.9532 -9167.9304 -7450.3379 299.0011 -328.8879 -242.3471 30839.6774 -24.8237 38.9715
TCL: Running FEP window  18: Lambda1 0.1499999999999997 Lambda2 0.09999999999999969 [dLambda -0.05 ]
TCL: Setting parameter firsttimestep to 0
TCL: Setting parameter alchLambda to 0.1499999999999997
Info: NONBONDED TABLE R-SQUARED SPACING: 0.0625
Info: NONBONDED TABLE SIZE: 705 POINTS
TCL: Setting parameter alchLambda2 to 0.09999999999999969
Info: NONBONDED TABLE R-SQUARED SPACING: 0.0625
Info: NONBONDED TABLE SIZE: 705 POINTS
TCL: Running for 1500000 steps
ETITLE: TS BOND ANGLE DIHED IMPRP ELECT VDW BOUNDARY MISC KINETIC TOTAL TEMP POTENTIAL TOTALAVG TEMPAVG PRESSURE GPRESSURE VOLUME PRESSAVG GPRESSAVG
ENERGY: 0 3.0533 12.9502 5.4845 0.0000 -10608.8781 1419.7885 0.0000 0.0000 1728.1968 -7439.4047 293.8068 -9167.6015 -7439.4047 293.8068 -323.1604 -243.3403 30839.6774 -323.1604 -243.3403
ENERGY: 300000 3.2631 10.7559 3.6737 0.0000 -10924.0771 1550.3647 0.0000 0.0000 1820.5924 -7535.4272 309.5148 -9356.0197 -7459.6647 299.8306 624.3652 758.3047 29703.7545 -23.1402 59.4031
ENERGY: 600000 1.7145 12.9726 3.7898 0.0000 -10608.0905 1476.7110 0.0000 0.0000 1719.3344 -7393.5682 292.3001 -9112.9026 -7440.2707 298.0086 553.6297 612.3416 30195.8062 31.3508 90.2917
ENERGY: 900000 3.5199 10.0434 5.6996 0.0000 -10715.6439 1467.8749 0.0000 0.0000 1808.0552 -7420.4510 307.3834 -9228.5062 -7434.9394 298.7810 257.9507 314.0597 30137.3379 59.2056 122.2547
ENERGY: 1200000 1.1674 11.3341 4.7630 0.0000 -10502.8962 1285.7404 0.0000 0.0000 1807.2247 -7392.6666 307.2422 -9199.8913 -7438.9146 300.3790 -1453.1805 -1328.6193 30674.2518 -59.1182 -0.9105
ENERGY: 1500000 1.6132 12.7780 3.3407 0.0000 -10718.5360 1405.1135 0.0000 0.0000 1752.6536 -7543.0369 297.9647 -9295.6905 -7450.9262 299.8010 -510.7716 -396.9195 30025.9621 -77.0647 -18.7718
TCL: Running FEP window  19: Lambda1 0.09999999999999969 Lambda2 0.049999999999999684 [dLambda -0.05 ]
TCL: Setting parameter firsttimestep to 0
TCL: Setting parameter alchLambda to 0.09999999999999969
Info: NONBONDED TABLE R-SQUARED SPACING: 0.0625
Info: NONBONDED TABLE SIZE: 705 POINTS
TCL: Setting parameter alchLambda2 to 0.049999999999999684
Info: NONBONDED TABLE R-SQUARED SPACING: 0.0625
Info: NONBONDED TABLE SIZE: 705 POINTS
TCL: Running for 1500000 steps
ETITLE: TS BOND ANGLE DIHED IMPRP ELECT VDW BOUNDARY MISC KINETIC TOTAL TEMP POTENTIAL TOTALAVG TEMPAVG PRESSURE GPRESSURE VOLUME PRESSAVG GPRESSAVG
ENERGY: 0 1.6132 12.7780 3.3407 0.0000 -10718.5358 1405.5118 0.0000 0.0000 1751.7306 -7543.5615 297.8077 -9295.2920 -7543.5615 297.8077 -480.1544 -400.7048 30025.9621 -480.1544 -400.7048
ENERGY: 300000 3.2107 9.8106 4.2467 0.0000 -10664.2083 1472.9464 0.0000 0.0000 1821.9573 -7352.0365 309.7468 -9173.9939 -7435.0543 304.0812 142.1099 229.6049 30478.5210 -186.8553 -129.2662
ENERGY: 600000 2.2205 11.5828 4.1464 0.0000 -10653.1625 1397.5498 0.0000 0.0000 1758.5641 -7479.0989 298.9695 -9237.6630 -7445.8980 301.8979 -313.0345 -255.2267 30137.7931 -299.9113 -236.8156
ENERGY: 900000 2.3161 6.9124 5.8019 0.0000 -10662.6602 1417.4566 0.0000 0.0000 1799.4188 -7430.7544 305.9151 -9230.1732 -7441.3473 305.1125 -501.1882 -392.8359 30762.8667 -385.0629 -313.3648
ENERGY: 1200000 2.4632 9.8492 2.4868 0.0000 -10774.2650 1468.4615 0.0000 0.0000 1804.4699 -7486.5342 306.7738 -9291.0042 -7439.7535 304.3276 -234.4671 -173.2843 30411.6033 -237.0796 -167.2851
ENERGY: 1500000 4.3536 12.4944 3.8579 0.0000 -10605.8290 1443.7216 0.0000 0.0000 1762.1114 -7379.2900 299.5726 -9141.4015 -7434.3877 304.2576 10.4368 112.0358 30424.6050 -172.9698 -97.6673
TCL: Running FEP window  20: Lambda1 0.049999999999999684 Lambda2 0.0    [dLambda -0.049999999999999684]
TCL: Setting parameter firsttimestep to 0
TCL: Setting parameter alchLambda to 0.049999999999999684
Info: NONBONDED TABLE R-SQUARED SPACING: 0.0625
Info: NONBONDED TABLE SIZE: 705 POINTS
TCL: Setting parameter alchLambda2 to 0.0
Info: NONBONDED TABLE R-SQUARED SPACING: 0.0625
Info: NONBONDED TABLE SIZE: 705 POINTS
TCL: Running for 1500000 steps
ETITLE: TS BOND ANGLE DIHED IMPRP ELECT VDW BOUNDARY MISC KINETIC TOTAL TEMP POTENTIAL TOTALAVG TEMPAVG PRESSURE GPRESSURE VOLUME PRESSAVG GPRESSAVG
ENERGY: 0 4.3536 12.4944 3.8579 0.0000 -10605.8291 1443.6167 0.0000 0.0000 1761.2568 -7380.2496 299.4273 -9141.5064 -7380.2496 299.4273 30.5237 109.5686 30424.6050 30.5237 109.5686
ENERGY: 300000 0.9633 14.0480 5.7152 0.0000 -10639.8708 1392.5478 0.0000 0.0000 1764.4581 -7462.1384 299.9715 -9226.5965 -7441.6230 300.2667 -243.3224 -245.5744 30232.1216 10.0957 78.0665
ENERGY: 600000 2.6250 13.7083 3.1090 0.0000 -10640.0546 1443.7524 0.0000 0.0000 1723.1770 -7453.6829 292.9534 -9176.8599 -7447.4538 298.5674 -56.4897 -31.0215 30437.1798 -21.6701 37.4499
ENERGY: 900000 2.8494 18.0842 3.0843 0.0000 -10719.8226 1508.7126 0.0000 0.0000 1785.9186 -7401.1734 303.6200 -9187.0920 -7440.4791 298.6206 302.5610 425.5866 30252.2134 -85.8932 -17.4070
ENERGY: 1200000 3.8513 16.2453 2.3464 0.0000 -10638.8666 1414.4321 0.0000 0.0000 1761.4227 -7440.5688 299.4555 -9201.9914 -7437.6873 298.5791 -231.2729 -189.8501 30216.1673 -135.8942 -73.9012
ENERGY: 1500000 3.6868 14.3333 5.8514 0.0000 -10666.3420 1381.9671 0.0000 0.0000 1767.2581 -7493.2453 300.4475 -9260.5034 -7451.2421 297.4795 -753.8996 -658.0217 30143.9245 -235.1656 -168.0903
TCL: Exiting due to exit command.
