Info: SIMULATION PARAMETERS:
Info: TIMESTEP               2
Info: NUMBER OF STEPS        0
Info: STEPS PER CYCLE        10
Info: PERIODIC CELL BASIS 1  33.0443 0 0
Info: PERIODIC CELL BASIS 2  0 30.2862 0
Info: PERIODIC CELL BASIS 3  0 0 30.6575
Info: PERIODIC CELL CENTER   0 0 0
Info: WRAPPING WATERS AROUND PERIODIC BOUNDARIES ON OUTPUT.
Info: WRAPPING ALL CLUSTERS AROUND PERIODIC BOUNDARIES ON OUTPUT.
Info: FIRST LDB TIMESTEP     50
Info: LAST LDB TIMESTEP     -1
Info: HOM BACKGROUND SCALING 1
Info: PME BACKGROUND SCALING 1
Info: MIN ATOMS PER PATCH    40
Info: EMPTY PATCH LOAD       40 ATOMS
Info: VELOCITY FILE          mobley_1944394_equil.vel
Info: CENTER OF MASS MOVING INITIALLY? NO
Info: DIELECTRIC             1
Info: EXCLUDE                SCALED ONE-FOUR
Info: 1-4 ELECTROSTATICS SCALED BY 0.833333
Info: MODIFIED 1-4 VDW PARAMETERS WILL BE USED
Info: DCD FILENAME           mobley_1944394_prod.dcd
Info: DCD FREQUENCY          100000
Info: DCD FIRST STEP         100000
Info: DCD FILE WILL CONTAIN UNIT CELL DATA
Info: XST FILENAME           mobley_1944394_prod.xst
Info: XST FREQUENCY          100000
Info: NO VELOCITY DCD OUTPUT
Info: NO FORCE DCD OUTPUT
Info: OUTPUT FILENAME        mobley_1944394_prod
Info: BINARY OUTPUT FILES WILL BE USED
Info: RESTART FILENAME       mobley_1944394_prod.restart
Info: RESTART FREQUENCY      100000
Info: BINARY RESTART FILES WILL BE USED
Info: CUTOFF                 9
Info: PAIRLIST DISTANCE      11
Info: PAIRLIST SHRINK RATE   0.01
Info: PAIRLIST GROW RATE     0.01
Info: PAIRLIST TRIGGER       0.3
Info: PAIRLISTS PER CYCLE    2
Info: PAIRLISTS ENABLED
Info: MARGIN                 2
Info: HYDROGEN GROUP CUTOFF  2.5
Info: PATCH DIMENSION        15.5
Info: ENERGY OUTPUT STEPS    100000
Info: ENERGY EVALUATION STEPS    100000
Info: OUTPUT ENERGY PRECISION 4
Info: CROSSTERM ENERGY INCLUDED IN DIHEDRAL
Info: TIMING OUTPUT STEPS    1000000
Info: PRESSURE OUTPUT STEPS  100000
Info: ALCHEMICAL FEP ON
Info: FEP CURRENT LAMBDA VALUE     1
Info: FEP COMPARISON LAMBDA VALUE  0.95
Info: FEP INTRA-ALCHEMICAL NON-BONDED INTERACTIONS WILL BE RETAINED
Info: FEP INTRA-ALCHEMICAL BONDED INTERACTIONS WILL BE RETAINED
Info: FEP VDW SHIFTING COEFFICIENT 5
Info: FEP ELEC. ACTIVE FOR ANNIHILATED PARTICLES BETWEEN LAMBDA = 0 AND LAMBDA = 0.5
Info: FEP ELEC. ACTIVE FOR EXNIHILATED PARTICLES BETWEEN LAMBDA = 0.5 AND LAMBDA = 1
Info: FEP VDW ACTIVE FOR ANNIHILATED PARTICLES BETWEEN LAMBDA = 0 AND LAMBDA = 1
Info: FEP VDW ACTIVE FOR EXNIHILATED PARTICLES BETWEEN LAMBDA = 0 AND LAMBDA = 1
Info: FEP BOND ACTIVE FOR ANNIHILATED PARTICLES BETWEEN LAMBDA = 1 AND LAMBDA = 1
Info: FEP BOND ACTIVE FOR EXNIHILATED PARTICLES BETWEEN LAMBDA = 0 AND LAMBDA = 0
Info: LANGEVIN DYNAMICS ACTIVE
Info: LANGEVIN TEMPERATURE   300
Info: LANGEVIN USING BBK INTEGRATOR
Info: LANGEVIN DAMPING COEFFICIENT IS 1 INVERSE PS
Info: LANGEVIN DYNAMICS APPLIED TO HYDROGENS
Info: LANGEVIN PISTON PRESSURE CONTROL ACTIVE
Info:        TARGET PRESSURE IS 1.01325 BAR
Info:     OSCILLATION PERIOD IS 50 FS
Info:             DECAY TIME IS 25 FS
Info:     PISTON TEMPERATURE IS 300 K
Info:       PRESSURE CONTROL IS GROUP-BASED
Info:    INITIAL STRAIN RATE IS 0.000240399 0.000240399 0.000240399
Info:       CELL FLUCTUATION IS ISOTROPIC
Info: PARTICLE MESH EWALD (PME) ACTIVE
Info: PME TOLERANCE               1e-06
Info: PME EWALD COEFFICIENT       0.348832
Info: PME INTERPOLATION ORDER     4
Info: PME GRID DIMENSIONS         36 32 32
Info: PME MAXIMUM GRID SPACING    1
Info: PME CALCULATION WILL BE PERFORMED ON GPU
Info: FULL ELECTROSTATIC EVALUATION FREQUENCY      2
Info: USING VERLET I (r-RESPA) MTS SCHEME.
Info: C1 SPLITTING OF LONG RANGE ELECTROSTATICS
Info: PLACING ATOMS IN PATCHES BY HYDROGEN GROUPS
Info: RIGID BONDS TO HYDROGEN : ALL
Info:         ERROR TOLERANCE : 1e-08
Info:          MAX ITERATIONS : 100
Info: RIGID WATER USING SETTLE ALGORITHM
Info: RANDOM NUMBER SEED     1744081538
Info: USE HYDROGEN BONDS?    NO
Info: Using AMBER format force field!
Info: AMBER PARM FILE        mobley_1944394.prmtop
Info: COORDINATE PDB         mobley_1944394.pdb
Info: Exclusions will be read from PARM file!
Info: SCNB (VDW SCALING)     2
Info: USING ARITHMETIC MEAN TO COMBINE L-J SIGMA PARAMETERS
Info: BINARY COORDINATES     mobley_1944394_equil.coor
Info: SUMMARY OF PARAMETERS:
Info: 9 BONDS
Info: 14 ANGLES
Info:   14 HARMONIC
Info:   0 COSINE-BASED
Info: 11 DIHEDRAL
Info: 0 IMPROPER
Info: 0 CROSSTERM
Info: 0 VDW
Info: 36 VDW_PAIRS
Info: 0 NBTHOLE_PAIRS
Info: To read alchdata from file: mobley_1944394.pdb
Info: To read alchflag data from column: 5
Info: STRUCTURE SUMMARY:
Info: 2950 ATOMS
Info: 2951 BONDS
Info: 70 ANGLES
Info: 110 DIHEDRALS
Info: 0 IMPROPERS
Info: 0 CROSSTERMS
Info: 3108 EXCLUSIONS
Info: 2931 RIGID BONDS
Info: ALCH: 0 ATOMS TO DISAPPEAR IN FINAL STATE
Info: ALCH: 40 ATOMS TO APPEAR IN FINAL STATE
Info: 5919 DEGREES OF FREEDOM
Info: 989 HYDROGEN GROUPS
Info: 4 ATOMS IN LARGEST HYDROGEN GROUP
Info: 989 MIGRATION GROUPS
Info: 4 ATOMS IN LARGEST MIGRATION GROUP
Info: TOTAL MASS = 17730.9 amu
Info: TOTAL CHARGE = 0.000400033 e
Info: MASS DENSITY = 0.959647 g/cm^3
Info: ATOM DENSITY = 0.0961489 atoms/A^3
Info: ADDED 0 IMPLICIT EXCLUSIONS
Info: NONBONDED TABLE R-SQUARED SPACING: 0.0625
Info: NONBONDED TABLE SIZE: 705 POINTS
Info: REMOVING COM VELOCITY -0.0543862 0.00208589 -0.0101543
Info: Use 3D box decompostion in PME FFT.
Info: Updated CUDA force table with 4096 elements.
Info: Updated CUDA LJ table with 8 x 8 elements.
Info: Found 35 unique exclusion lists needing 192 bytes
TCL: Running for 1500000 steps
ETITLE: TS BOND ANGLE DIHED IMPRP ELECT VDW BOUNDARY MISC KINETIC TOTAL TEMP POTENTIAL TOTALAVG TEMPAVG PRESSURE GPRESSURE VOLUME PRESSAVG GPRESSAVG
ENERGY: 0 11.1126 17.5505 8.4286 0.0000 -10526.1341 1340.0332 0.0000 0.0000 1817.3226 -7331.6866 309.0111 -9149.0092 -7331.6866 309.0111 -1151.9196 -1049.9566 30681.5755 -1151.9196 -1049.9566
ENERGY: 300000 5.5947 20.4688 10.4679 0.0000 -10575.5263 1452.8882 0.0000 0.0000 1784.4266 -7301.6802 303.4176 -9086.1068 -7335.0593 306.8078 -24.8504 62.4113 31111.1966 -541.7891 -457.5932
ENERGY: 600000 6.5324 11.2004 7.9137 0.0000 -10711.1022 1484.6589 0.0000 0.0000 1752.8746 -7447.9222 298.0526 -9200.7969 -7357.9102 303.6694 385.6990 412.1873 30084.3422 -131.8919 -55.1721
ENERGY: 900000 10.3116 14.6771 6.9533 0.0000 -10656.8933 1436.4485 0.0000 0.0000 1767.5428 -7420.9600 300.5467 -9188.5028 -7385.8495 302.2751 -313.1056 -278.5897 30718.9905 -239.3710 -164.5162
ENERGY: 1200000 10.1689 12.5452 11.6102 0.0000 -10312.7189 1247.3741 0.0000 0.0000 1746.4928 -7284.5276 296.9674 -9031.0204 -7367.0940 301.2111 -1745.7500 -1613.0267 31340.0162 -306.6587 -225.9685
ENERGY: 1500000 6.7691 13.4250 10.6306 0.0000 -10685.6719 1471.9803 0.0000 0.0000 1743.9863 -7438.8806 296.5412 -9182.8668 -7360.2955 300.9509 298.3361 334.5430 30112.2441 -331.4858 -259.0055
TCL: Running FEP window   2: Lambda1 0.95   Lambda2 0.8999999999999999 [dLambda -0.050000000000000044]
TCL: Setting parameter firsttimestep to 0
TCL: Setting parameter alchLambda to 0.95
Info: NONBONDED TABLE R-SQUARED SPACING: 0.0625
Info: NONBONDED TABLE SIZE: 705 POINTS
TCL: Setting parameter alchLambda2 to 0.8999999999999999
Info: NONBONDED TABLE R-SQUARED SPACING: 0.0625
Info: NONBONDED TABLE SIZE: 705 POINTS
TCL: Running for 1500000 steps
ETITLE: TS BOND ANGLE DIHED IMPRP ELECT VDW BOUNDARY MISC KINETIC TOTAL TEMP POTENTIAL TOTALAVG TEMPAVG PRESSURE GPRESSURE VOLUME PRESSAVG GPRESSAVG
ENERGY: 0 6.7692 13.4250 10.6306 0.0000 -10682.5418 1471.3189 0.0000 0.0000 1743.0949 -7437.3032 296.3897 -9180.3981 -7437.3032 296.3897 224.1293 305.5094 30112.2441 224.1293 305.5094
ENERGY: 300000 8.7371 13.1742 10.8281 0.0000 -10438.9662 1358.0185 0.0000 0.0000 1799.7852 -7248.4231 306.0291 -9048.2084 -7349.5007 300.8080 -253.1196 -174.4707 30103.9351 -73.2552 3.6641
ENERGY: 600000 5.9197 14.4420 11.1952 0.0000 -10653.3455 1431.3951 0.0000 0.0000 1760.1411 -7430.2524 299.2881 -9190.3934 -7354.7401 300.7103 -230.0831 -191.7651 30582.1045 103.4020 179.9714
ENERGY: 900000 6.1492 13.9566 5.2634 0.0000 -10537.5579 1394.1846 0.0000 0.0000 1755.3082 -7362.6959 298.4664 -9118.0041 -7357.6106 300.7473 -272.9741 -202.8657 30591.5103 71.4515 149.8933
ENERGY: 1200000 3.7019 17.6017 11.7129 0.0000 -10752.0458 1532.2565 0.0000 0.0000 1782.5616 -7404.2112 303.1005 -9186.7728 -7363.1815 299.9709 842.9880 889.7262 30245.1792 153.6365 223.9802
ENERGY: 1500000 4.7227 14.6988 6.3985 0.0000 -10548.1572 1405.1358 0.0000 0.0000 1840.4190 -7276.7824 312.9383 -9117.2014 -7360.9222 299.7421 -78.7113 -49.8538 30583.4263 -5.3818 59.8834
TCL: Running FEP window   3: Lambda1 0.8999999999999999 Lambda2 0.8499999999999999 [dLambda -0.050000000000000044]
TCL: Setting parameter firsttimestep to 0
TCL: Setting parameter alchLambda to 0.8999999999999999
Info: NONBONDED TABLE R-SQUARED SPACING: 0.0625
Info: NONBONDED TABLE SIZE: 705 POINTS
TCL: Setting parameter alchLambda2 to 0.8499999999999999
Info: NONBONDED TABLE R-SQUARED SPACING: 0.0625
Info: NONBONDED TABLE SIZE: 705 POINTS
TCL: Running for 1500000 steps
ETITLE: TS BOND ANGLE DIHED IMPRP ELECT VDW BOUNDARY MISC KINETIC TOTAL TEMP POTENTIAL TOTALAVG TEMPAVG PRESSURE GPRESSURE VOLUME PRESSAVG GPRESSAVG
ENERGY: 0 4.7227 14.6988 6.3985 0.0000 -10546.2334 1405.4562 0.0000 0.0000 1839.5363 -7275.4210 312.7882 -9114.9572 -7275.4210 312.7882 -143.6419 -67.1504 30583.4263 -143.6419 -67.1504
ENERGY: 300000 5.5753 14.5421 8.5879 0.0000 -10458.9672 1410.4709 0.0000 0.0000 1712.5004 -7307.2906 291.1875 -9019.7911 -7296.5470 304.1822 184.2322 227.2757 31021.3136 -82.5234 1.2947
ENERGY: 600000 8.8358 17.2885 9.9359 0.0000 -10516.1231 1398.7756 0.0000 0.0000 1729.2415 -7352.0456 294.0341 -9081.2872 -7328.1592 301.7261 -206.4947 -102.0587 29928.7350 -48.6143 27.1114
ENERGY: 900000 9.9381 13.1688 9.1685 0.0000 -10578.4625 1377.9480 0.0000 0.0000 1741.6806 -7426.5584 296.1492 -9168.2390 -7355.7472 300.1495 -664.5465 -599.1087 30626.3178 -46.9055 22.8415
ENERGY: 1200000 6.7515 20.0426 8.6165 0.0000 -10443.6775 1357.5292 0.0000 0.0000 1766.0812 -7284.6565 300.2982 -9050.7377 -7344.4960 300.4677 -203.6067 -133.5319 30285.7908 -30.8355 37.4955
ENERGY: 1500000 5.6611 13.9783 8.2231 0.0000 -10522.7934 1400.4662 0.0000 0.0000 1824.5078 -7269.9569 310.2328 -9094.4647 -7339.1775 301.4399 -3.3267 28.0125 30328.5195 -41.6525 28.5873
TCL: Running FEP window   4: Lambda1 0.8499999999999999 Lambda2 0.7999999999999998 [dLambda -0.050000000000000044]
TCL: Setting parameter firsttimestep to 0
TCL: Setting parameter alchLambda to 0.8499999999999999
Info: NONBONDED TABLE R-SQUARED SPACING: 0.0625
Info: NONBONDED TABLE SIZE: 705 POINTS
TCL: Setting parameter alchLambda2 to 0.7999999999999998
Info: NONBONDED TABLE R-SQUARED SPACING: 0.0625
Info: NONBONDED TABLE SIZE: 705 POINTS
TCL: Running for 1500000 steps
ETITLE: TS BOND ANGLE DIHED IMPRP ELECT VDW BOUNDARY MISC KINETIC TOTAL TEMP POTENTIAL TOTALAVG TEMPAVG PRESSURE GPRESSURE VOLUME PRESSAVG GPRESSAVG
ENERGY: 0 5.6611 13.9783 8.2231 0.0000 -10521.0373 1400.8338 0.0000 0.0000 1823.6611 -7268.6799 310.0889 -9092.3410 -7268.6799 310.0889 -71.1004 13.1409 30328.5195 -71.1004 13.1409
ENERGY: 300000 8.5801 19.3332 10.5539 0.0000 -10607.0301 1442.5346 0.0000 0.0000 1791.8279 -7334.2005 304.6761 -9126.0283 -7321.9597 305.7782 261.8870 247.0200 29713.7306 -114.9491 -81.6738
ENERGY: 600000 6.7736 15.5879 9.0372 0.0000 -10683.8765 1498.0970 0.0000 0.0000 1719.2764 -7435.1044 292.3397 -9154.3808 -7343.7764 301.3326 634.5937 632.7917 30655.5892 1.3351 18.2952
ENERGY: 900000 9.0846 15.2585 8.4756 0.0000 -10509.8236 1421.2257 0.0000 0.0000 1745.9216 -7309.8575 296.8703 -9055.7791 -7326.1068 299.8940 33.2302 75.7663 30652.6862 74.8840 107.7221
ENERGY: 1200000 5.4241 14.0037 6.1509 0.0000 -10587.5417 1436.8207 0.0000 0.0000 1723.0224 -7402.1200 292.9766 -9125.1424 -7343.5533 299.1842 257.0016 268.7070 30221.5123 -8.7213 28.3890
ENERGY: 1500000 9.7802 20.1583 7.4733 0.0000 -10543.6227 1428.6557 0.0000 0.0000 1737.9482 -7339.6070 295.5145 -9077.5551 -7344.6244 299.1783 67.6715 75.7215 30323.9579 58.9079 96.7154
TCL: Running FEP window   5: Lambda1 0.7999999999999998 Lambda2 0.7499999999999998 [dLambda -0.050000000000000044]
TCL: Setting parameter firsttimestep to 0
TCL: Setting parameter alchLambda to 0.7999999999999998
Info: NONBONDED TABLE R-SQUARED SPACING: 0.0625
Info: NONBONDED TABLE SIZE: 705 POINTS
TCL: Setting parameter alchLambda2 to 0.7499999999999998
Info: NONBONDED TABLE R-SQUARED SPACING: 0.0625
Info: NONBONDED TABLE SIZE: 705 POINTS
TCL: Running for 1500000 steps
ETITLE: TS BOND ANGLE DIHED IMPRP ELECT VDW BOUNDARY MISC KINETIC TOTAL TEMP POTENTIAL TOTALAVG TEMPAVG PRESSURE GPRESSURE VOLUME PRESSAVG GPRESSAVG
ENERGY: 0 9.7802 20.1583 7.4733 0.0000 -10541.2279 1427.7790 0.0000 0.0000 1737.0937 -7338.9433 295.3693 -9076.0370 -7338.9433 295.3693 -21.2444 49.0491 30323.9579 -21.2444 49.0491
ENERGY: 300000 4.2249 12.3630 7.2409 0.0000 -10474.3806 1345.4568 0.0000 0.0000 1759.9340 -7345.1610 299.2529 -9105.0950 -7327.0952 300.9159 -472.3358 -331.3844 30136.8107 -94.6494 -0.8484
ENERGY: 600000 8.7843 11.0405 11.1922 0.0000 -10411.9299 1326.4200 0.0000 0.0000 1711.7342 -7342.7587 291.0572 -9054.4929 -7354.7684 297.9650 -1046.0165 -958.8463 30805.3273 -312.4401 -224.7430
ENERGY: 900000 8.1563 16.7679 8.4537 0.0000 -10458.6064 1401.9457 0.0000 0.0000 1778.7082 -7244.5747 302.4452 -9023.2829 -7329.8520 298.5578 -41.4349 9.2218 30811.4579 -303.3220 -225.4482
ENERGY: 1200000 6.1377 12.0877 13.0793 0.0000 -10469.6653 1357.3399 0.0000 0.0000 1757.9242 -7323.0963 298.9112 -9081.0205 -7330.9549 299.2845 -746.9485 -699.2446 30736.4470 -309.5060 -235.2594
ENERGY: 1500000 5.3755 18.2266 11.6770 0.0000 -10573.9092 1395.4293 0.0000 0.0000 1767.5717 -7375.6291 300.5516 -9143.2008 -7332.3183 299.2757 -445.6747 -387.9229 30235.6670 -330.2812 -258.1353
TCL: Running FEP window   6: Lambda1 0.7499999999999998 Lambda2 0.6999999999999997 [dLambda -0.050000000000000044]
TCL: Setting parameter firsttimestep to 0
TCL: Setting parameter alchLambda to 0.7499999999999998
Info: NONBONDED TABLE R-SQUARED SPACING: 0.0625
Info: NONBONDED TABLE SIZE: 705 POINTS
TCL: Setting parameter alchLambda2 to 0.6999999999999997
Info: NONBONDED TABLE R-SQUARED SPACING: 0.0625
Info: NONBONDED TABLE SIZE: 705 POINTS
TCL: Running for 1500000 steps
ETITLE: TS BOND ANGLE DIHED IMPRP ELECT VDW BOUNDARY MISC KINETIC TOTAL TEMP POTENTIAL TOTALAVG TEMPAVG PRESSURE GPRESSURE VOLUME PRESSAVG GPRESSAVG
ENERGY: 0 5.3755 18.2266 11.6770 0.0000 -10572.0176 1395.3547 0.0000 0.0000 1766.7315 -7374.6522 300.4088 -9141.3838 -7374.6522 300.4088 -495.8307 -404.6003 30235.6670 -495.8307 -404.6003
ENERGY: 300000 7.5584 15.2737 9.2745 0.0000 -10639.6444 1396.8911 0.0000 0.0000 1757.6188 -7453.0280 298.8593 -9210.6468 -7375.7615 300.9981 -301.8191 -265.0131 29896.1106 -23.5023 33.1664
ENERGY: 600000 4.6724 14.2329 15.1483 0.0000 -10690.2119 1531.4512 0.0000 0.0000 1768.5808 -7356.1262 300.7232 -9124.7071 -7363.1075 300.6270 593.5739 586.6815 30303.9402 60.0364 99.5754
ENERGY: 900000 6.1710 12.5829 9.3186 0.0000 -10597.7413 1397.9971 0.0000 0.0000 1813.3384 -7358.3333 308.3336 -9171.6717 -7362.5397 300.9117 -274.5699 -219.8349 30388.3435 46.5818 98.4993
ENERGY: 1200000 6.5621 17.4156 8.3336 0.0000 -10425.0930 1324.4354 0.0000 0.0000 1809.1393 -7259.2070 307.6196 -9068.3462 -7347.4776 301.2740 -638.9653 -564.7294 30439.2388 -45.6544 11.5644
ENERGY: 1500000 7.0409 13.1423 10.6238 0.0000 -10348.0939 1303.0596 0.0000 0.0000 1770.3168 -7243.9105 301.0184 -9014.2273 -7339.3164 300.6643 -727.2642 -669.5896 30411.2931 -97.6342 -38.3942
TCL: Running FEP window   7: Lambda1 0.6999999999999997 Lambda2 0.6499999999999997 [dLambda -0.050000000000000044]
TCL: Setting parameter firsttimestep to 0
TCL: Setting parameter alchLambda to 0.6999999999999997
Info: NONBONDED TABLE R-SQUARED SPACING: 0.0625
Info: NONBONDED TABLE SIZE: 705 POINTS
TCL: Setting parameter alchLambda2 to 0.6499999999999997
Info: NONBONDED TABLE R-SQUARED SPACING: 0.0625
Info: NONBONDED TABLE SIZE: 705 POINTS
TCL: Running for 1500000 steps
ETITLE: TS BOND ANGLE DIHED IMPRP ELECT VDW BOUNDARY MISC KINETIC TOTAL TEMP POTENTIAL TOTALAVG TEMPAVG PRESSURE GPRESSURE VOLUME PRESSAVG GPRESSAVG
ENERGY: 0 7.0409 13.1423 10.6238 0.0000 -10346.9937 1304.3660 0.0000 0.0000 1769.3856 -7242.4351 300.8601 -9011.8207 -7242.4351 300.8601 -742.0099 -668.7579 30411.2931 -742.0099 -668.7579
ENERGY: 300000 6.9739 19.5844 8.0670 0.0000 -10521.3053 1399.8432 0.0000 0.0000 1790.4587 -7296.3781 304.4433 -9086.8368 -7317.5526 299.3071 -343.1971 -280.8811 30380.4404 -302.5424 -244.6897
ENERGY: 600000 8.8057 15.7272 10.1338 0.0000 -10534.3645 1324.8954 0.0000 0.0000 1747.4915 -7427.3108 297.1373 -9174.8023 -7333.5555 300.0486 -1055.9032 -1044.2754 30506.9973 -358.9149 -299.9174
ENERGY: 900000 3.8445 12.4247 6.9527 0.0000 -10619.9711 1502.9117 0.0000 0.0000 1782.8818 -7310.9557 303.1549 -9093.8374 -7329.6131 300.5313 847.3629 917.5696 30097.1901 -100.6490 -40.0568
ENERGY: 1200000 5.9418 15.5047 8.0954 0.0000 -10605.8999 1423.0711 0.0000 0.0000 1752.2993 -7400.9875 297.9548 -9153.2868 -7342.7361 299.4100 -105.3742 -137.8288 30620.4692 -110.4952 -57.3619
ENERGY: 1500000 6.2156 11.8019 9.4413 0.0000 -10500.5630 1381.1506 0.0000 0.0000 1741.9374 -7350.0162 296.1929 -9091.9536 -7343.0943 299.4340 -581.1917 -507.0102 30553.8194 -186.2031 -130.2674
TCL: Running FEP window   8: Lambda1 0.6499999999999997 Lambda2 0.5999999999999996 [dLambda -0.050000000000000044]
TCL: Setting parameter firsttimestep to 0
TCL: Setting parameter alchLambda to 0.6499999999999997
Info: NONBONDED TABLE R-SQUARED SPACING: 0.0625
Info: NONBONDED TABLE SIZE: 705 POINTS
TCL: Setting parameter alchLambda2 to 0.5999999999999996
Info: NONBONDED TABLE R-SQUARED SPACING: 0.0625
Info: NONBONDED TABLE SIZE: 705 POINTS
TCL: Running for 1500000 steps
ETITLE: TS BOND ANGLE DIHED IMPRP ELECT VDW BOUNDARY MISC KINETIC TOTAL TEMP POTENTIAL TOTALAVG TEMPAVG PRESSURE GPRESSURE VOLUME PRESSAVG GPRESSAVG
ENERGY: 0 6.2157 11.8019 9.4413 0.0000 -10499.4250 1382.4203 0.0000 0.0000 1741.0661 -7348.4799 296.0447 -9089.5460 -7348.4799 296.0447 -581.3962 -503.8971 30553.8194 -581.3962 -503.8971
ENERGY: 300000 4.3681 14.8073 7.2832 0.0000 -10497.5055 1335.1285 0.0000 0.0000 1765.5826 -7370.3357 300.2134 -9135.9183 -7388.5987 296.8185 -523.2788 -489.0663 29978.6326 -295.9657 -238.5530
ENERGY: 600000 10.5628 14.4861 9.9586 0.0000 -10478.8926 1384.5119 0.0000 0.0000 1772.7743 -7286.5989 301.4363 -9059.3732 -7361.5212 298.6931 -350.2305 -264.3159 30282.9367 -90.8725 -35.6811
ENERGY: 900000 4.6015 13.7827 7.1376 0.0000 -10643.9383 1416.8830 0.0000 0.0000 1817.1495 -7384.3840 308.9817 -9201.5336 -7361.5352 300.6516 -4.9160 -21.9869 29930.9001 -79.7079 -34.1355
ENERGY: 1200000 9.3501 14.1765 9.5468 0.0000 -10580.7312 1382.8712 0.0000 0.0000 1711.2022 -7453.5843 290.9668 -9164.7866 -7371.0890 299.6528 -549.1349 -479.7205 29872.1724 -36.8260 19.2579
ENERGY: 1500000 6.4818 17.4423 10.5508 0.0000 -10541.4390 1395.4190 0.0000 0.0000 1798.6950 -7312.8499 305.8437 -9111.5450 -7358.9365 300.2066 -584.2476 -490.6255 31030.8914 -103.4080 -49.7491
TCL: Running FEP window   9: Lambda1 0.5999999999999996 Lambda2 0.5499999999999996 [dLambda -0.050000000000000044]
TCL: Setting parameter firsttimestep to 0
TCL: Setting parameter alchLambda to 0.5999999999999996
Info: NONBONDED TABLE R-SQUARED SPACING: 0.0625
Info: NONBONDED TABLE SIZE: 705 POINTS
TCL: Setting parameter alchLambda2 to 0.5499999999999996
Info: NONBONDED TABLE R-SQUARED SPACING: 0.0625
Info: NONBONDED TABLE SIZE: 705 POINTS
TCL: Running for 1500000 steps
ETITLE: TS BOND ANGLE DIHED IMPRP ELECT VDW BOUNDARY MISC KINETIC TOTAL TEMP POTENTIAL TOTALAVG TEMPAVG PRESSURE GPRESSURE VOLUME PRESSAVG GPRESSAVG
ENERGY: 0 6.4818 17.4423 10.5508 0.0000 -10540.7811 1396.5395 0.0000 0.0000 1797.8317 -7311.9350 305.6969 -9109.7667 -7311.9350 305.6969 -574.7105 -492.0014 31030.8914 -574.7105 -492.0014
ENERGY: 300000 8.7436 12.4930 13.0253 0.0000 -10613.3258 1443.7148 0.0000 0.0000 1761.0518 -7374.2973 299.4430 -9135.3491 -7350.2953 300.0593 -200.6695 -169.6446 30747.0371 -65.6436 -32.7102
ENERGY: 600000 7.5862 14.9957 8.6075 0.0000 -10507.0217 1324.0388 0.0000 0.0000 1768.6206 -7383.1729 300.7300 -9151.7935 -7353.5680 299.8541 -846.6828 -794.9846 30075.2219 -160.3848 -109.0949
ENERGY: 900000 7.6195 18.8644 15.3376 0.0000 -10351.7162 1316.3156 0.0000 0.0000 1755.0155 -7238.5636 298.4166 -8993.5791 -7328.5732 301.2265 -976.1945 -887.0775 30565.5495 -183.1356 -120.3827
ENERGY: 1200000 2.5972 13.8396 11.3473 0.0000 -10551.0089 1382.3150 0.0000 0.0000 1787.4096 -7353.5002 303.9248 -9140.9098 -7331.1431 301.3675 16.7096 93.4250 29808.1743 -134.6292 -73.3590
ENERGY: 1500000 7.6204 13.7642 9.9395 0.0000 -10661.8386 1521.1174 0.0000 0.0000 1721.9449 -7387.4522 292.7934 -9109.3971 -7337.4520 300.8214 525.6000 534.8061 30416.4966 -149.5450 -90.7924
TCL: Running FEP window  10: Lambda1 0.5499999999999996 Lambda2 0.4999999999999996 [dLambda -0.04999999999999999]
TCL: Setting parameter firsttimestep to 0
TCL: Setting parameter alchLambda to 0.5499999999999996
Info: NONBONDED TABLE R-SQUARED SPACING: 0.0625
Info: NONBONDED TABLE SIZE: 705 POINTS
TCL: Setting parameter alchLambda2 to 0.4999999999999996
Info: NONBONDED TABLE R-SQUARED SPACING: 0.0625
Info: NONBONDED TABLE SIZE: 705 POINTS
TCL: Running for 1500000 steps
ETITLE: TS BOND ANGLE DIHED IMPRP ELECT VDW BOUNDARY MISC KINETIC TOTAL TEMP POTENTIAL TOTALAVG TEMPAVG PRESSURE GPRESSURE VOLUME PRESSAVG GPRESSAVG
ENERGY: 0 7.6204 13.7642 9.9395 0.0000 -10661.8153 1521.9197 0.0000 0.0000 1721.0508 -7387.5206 292.6414 -9108.5714 -7387.5206 292.6414 464.4517 529.0570 30416.4966 464.4517 529.0570
ENERGY: 300000 11.0629 17.6553 10.8338 0.0000 -10514.8834 1329.1376 0.0000 0.0000 1765.7998 -7380.3940 300.2503 -9146.1938 -7347.5487 296.1116 -1316.5038 -1205.8821 30597.2852 232.7328 291.6419
ENERGY: 600000 4.8786 14.5168 10.7415 0.0000 -10541.2394 1411.2153 0.0000 0.0000 1763.7113 -7336.1759 299.8952 -9099.8872 -7341.3796 297.8879 178.8538 261.4999 30157.9585 59.0718 126.6962
ENERGY: 900000 8.0651 13.8078 6.4897 0.0000 -10676.5112 1454.1812 0.0000 0.0000 1746.0994 -7447.8681 296.9006 -9193.9675 -7350.3754 298.9958 -17.8128 91.0033 29825.4683 -43.5110 21.7783
ENERGY: 1200000 8.6387 20.2180 5.7675 0.0000 -10613.9235 1459.0298 0.0000 0.0000 1750.0745 -7370.1950 297.5765 -9120.2695 -7349.1979 299.3231 728.6999 719.4506 29993.3499 -61.6503 -1.8630
ENERGY: 1500000 3.7548 13.1595 9.4714 0.0000 -10606.7617 1431.8476 0.0000 0.0000 1767.2626 -7381.2659 300.4991 -9148.5285 -7343.7876 299.5422 257.0333 301.0638 29953.1184 -122.9524 -59.3593
TCL: Running FEP window  11: Lambda1 0.4999999999999996 Lambda2 0.4499999999999996 [dLambda -0.04999999999999999]
TCL: Setting parameter firsttimestep to 0
TCL: Setting parameter alchLambda to 0.4999999999999996
Info: NONBONDED TABLE R-SQUARED SPACING: 0.0625
Info: NONBONDED TABLE SIZE: 705 POINTS
TCL: Setting parameter alchLambda2 to 0.4499999999999996
Info: NONBONDED TABLE R-SQUARED SPACING: 0.0625
Info: NONBONDED TABLE SIZE: 705 POINTS
TCL: Running for 1500000 steps
ETITLE: TS BOND ANGLE DIHED IMPRP ELECT VDW BOUNDARY MISC KINETIC TOTAL TEMP POTENTIAL TOTALAVG TEMPAVG PRESSURE GPRESSURE VOLUME PRESSAVG GPRESSAVG
ENERGY: 0 3.7548 13.1595 9.4714 0.0000 -10606.4017 1432.2539 0.0000 0.0000 1766.4056 -7381.3566 300.3533 -9147.7622 -7381.3566 300.3533 204.0725 286.1748 29953.1184 204.0725 286.1748
ENERGY: 300000 6.5259 17.1678 9.5574 0.0000 -10737.4192 1583.3639 0.0000 0.0000 1786.6418 -7334.1623 303.7942 -9120.8041 -7316.0395 303.6574 1538.7171 1611.5523 29673.0502 489.2190 552.5737
ENERGY: 600000 6.6131 13.8502 7.4427 0.0000 -10342.2985 1294.8990 0.0000 0.0000 1843.2410 -7176.2527 313.4182 -9019.4937 -7313.1982 303.6988 -1273.3660 -1165.0188 31035.0199 -89.9500 -13.0311
ENERGY: 900000 4.6058 13.2920 10.5007 0.0000 -10453.5470 1310.3577 0.0000 0.0000 1764.1317 -7350.6591 299.9667 -9114.7908 -7330.7857 302.4008 -795.3986 -695.9927 30196.1801 -149.7424 -73.3956
ENERGY: 1200000 4.5821 15.9756 6.0202 0.0000 -10481.4556 1316.7007 0.0000 0.0000 1784.8120 -7353.3649 303.4831 -9138.1769 -7333.3994 302.0013 -892.7807 -854.0671 30249.6961 -214.3845 -147.4830
ENERGY: 1500000 5.1302 11.8399 9.6814 0.0000 -10750.3380 1539.0688 0.0000 0.0000 1691.1019 -7493.5158 287.5490 -9184.6177 -7347.1545 301.0002 781.0934 885.1147 30139.3156 -104.1208 -41.7989
TCL: Running FEP window  12: Lambda1 0.4499999999999996 Lambda2 0.39999999999999963 [dLambda -0.04999999999999999]
TCL: Setting parameter firsttimestep to 0
TCL: Setting parameter alchLambda to 0.4499999999999996
Info: NONBONDED TABLE R-SQUARED SPACING: 0.0625
Info: NONBONDED TABLE SIZE: 705 POINTS
TCL: Setting parameter alchLambda2 to 0.39999999999999963
Info: NONBONDED TABLE R-SQUARED SPACING: 0.0625
Info: NONBONDED TABLE SIZE: 705 POINTS
TCL: Running for 1500000 steps
ETITLE: TS BOND ANGLE DIHED IMPRP ELECT VDW BOUNDARY MISC KINETIC TOTAL TEMP POTENTIAL TOTALAVG TEMPAVG PRESSURE GPRESSURE VOLUME PRESSAVG GPRESSAVG
ENERGY: 0 5.1302 11.8400 9.6814 0.0000 -10750.3382 1539.7666 0.0000 0.0000 1690.2241 -7493.6960 287.3997 -9183.9201 -7493.6960 287.3997 796.9435 877.0413 30139.3156 796.9435 877.0413
ENERGY: 300000 7.9181 14.1466 6.6390 0.0000 -10456.7295 1330.5582 0.0000 0.0000 1780.5708 -7316.8968 302.7619 -9097.4676 -7373.6202 296.6329 -979.0197 -912.5273 30359.5273 -27.6806 25.0111
ENERGY: 600000 6.9629 13.5185 11.5744 0.0000 -10675.7495 1476.9163 0.0000 0.0000 1756.4261 -7410.3514 298.6565 -9166.7775 -7361.5617 298.7295 98.0443 85.6228 30414.4446 -6.5724 56.8294
ENERGY: 900000 7.8665 17.5912 13.2128 0.0000 -10496.2076 1403.1377 0.0000 0.0000 1760.1038 -7294.2956 299.2818 -9054.3994 -7347.0156 298.7896 12.3247 70.4801 30001.5096 -166.6509 -101.1402
ENERGY: 1200000 6.2079 10.9187 12.1454 0.0000 -10570.2857 1437.4044 0.0000 0.0000 1779.3905 -7324.2188 302.5613 -9103.6093 -7336.5227 299.7623 -141.2372 -47.5611 30392.1987 -43.0420 22.3960
ENERGY: 1500000 3.3452 16.0766 11.0520 0.0000 -10689.5596 1495.8553 0.0000 0.0000 1765.8568 -7397.3736 300.2600 -9163.2305 -7344.7205 299.8695 403.0430 459.0709 30068.7834 -19.9121 47.7771
TCL: Running FEP window  13: Lambda1 0.39999999999999963 Lambda2 0.34999999999999964 [dLambda -0.04999999999999999]
TCL: Setting parameter firsttimestep to 0
TCL: Setting parameter alchLambda to 0.39999999999999963
Info: NONBONDED TABLE R-SQUARED SPACING: 0.0625
Info: NONBONDED TABLE SIZE: 705 POINTS
TCL: Setting parameter alchLambda2 to 0.34999999999999964
Info: NONBONDED TABLE R-SQUARED SPACING: 0.0625
Info: NONBONDED TABLE SIZE: 705 POINTS
TCL: Running for 1500000 steps
ETITLE: TS BOND ANGLE DIHED IMPRP ELECT VDW BOUNDARY MISC KINETIC TOTAL TEMP POTENTIAL TOTALAVG TEMPAVG PRESSURE GPRESSURE VOLUME PRESSAVG GPRESSAVG
ENERGY: 0 3.3452 16.0766 11.0520 0.0000 -10689.5589 1496.4728 0.0000 0.0000 1764.9939 -7397.6185 300.1133 -9162.6123 -7397.6185 300.1133 364.9136 451.2614 30068.7834 364.9136 451.2614
ENERGY: 300000 7.1420 17.4345 10.1768 0.0000 -10489.2811 1402.5820 0.0000 0.0000 1714.7320 -7337.2139 291.5670 -9051.9459 -7342.9176 296.7084 -368.7367 -342.0537 30615.2651 118.2651 178.0881
ENERGY: 600000 4.6766 10.5839 8.6888 0.0000 -10507.6059 1371.5561 0.0000 0.0000 1766.1560 -7345.9445 300.3109 -9112.1004 -7328.3991 298.3900 -604.3793 -502.3421 30151.6621 92.5830 153.8855
ENERGY: 900000 10.9647 18.7484 7.4082 0.0000 -10480.8684 1408.5181 0.0000 0.0000 1743.7794 -7291.4495 296.5061 -9035.2289 -7321.3701 297.6348 -272.5808 -221.0929 30526.1071 -4.0098 59.2670
ENERGY: 1200000 6.4972 10.6680 9.8822 0.0000 -10468.6761 1375.0430 0.0000 0.0000 1808.5006 -7258.0851 307.5110 -9066.5857 -7323.1069 298.6351 -299.5635 -240.5571 30504.2396 -60.1599 0.9703
ENERGY: 1500000 7.7675 15.8471 7.7403 0.0000 -10542.0527 1413.1040 0.0000 0.0000 1730.5957 -7366.9981 294.2644 -9097.5938 -7330.8873 298.1701 -204.9211 -175.0989 30205.3578 -68.9026 -8.2012
TCL: Running FEP window  14: Lambda1 0.34999999999999964 Lambda2 0.29999999999999966 [dLambda -0.04999999999999999]
TCL: Setting parameter firsttimestep to 0
TCL: Setting parameter alchLambda to 0.34999999999999964
Info: NONBONDED TABLE R-SQUARED SPACING: 0.0625
Info: NONBONDED TABLE SIZE: 705 POINTS
TCL: Setting parameter alchLambda2 to 0.29999999999999966
Info: NONBONDED TABLE R-SQUARED SPACING: 0.0625
Info: NONBONDED TABLE SIZE: 705 POINTS
TCL: Running for 1500000 steps
ETITLE: TS BOND ANGLE DIHED IMPRP ELECT VDW BOUNDARY MISC KINETIC TOTAL TEMP POTENTIAL TOTALAVG TEMPAVG PRESSURE GPRESSURE VOLUME PRESSAVG GPRESSAVG
ENERGY: 0 7.7675 15.8471 7.7403 0.0000 -10542.0520 1412.6737 0.0000 0.0000 1729.7548 -7368.2685 294.1214 -9098.0233 -7368.2685 294.1214 -254.5009 -189.6118 30205.3578 -254.5009 -189.6118
ENERGY: 300000 6.4198 18.2755 8.4456 0.0000 -10603.1684 1516.0284 0.0000 0.0000 1823.0756 -7230.9234 309.9893 -9053.9990 -7291.2615 301.6148 549.0726 604.0792 30432.1927 406.6626 486.6053
ENERGY: 600000 7.6500 15.9764 11.7512 0.0000 -10536.8406 1413.5144 0.0000 0.0000 1691.9366 -7396.0119 287.6909 -9087.9486 -7322.7356 298.5730 198.0334 254.9513 29956.5614 362.7626 424.6624
ENERGY: 900000 13.8180 11.8855 9.1841 0.0000 -10508.2748 1460.0916 0.0000 0.0000 1776.6736 -7236.6219 302.0993 -9013.2955 -7317.7903 298.3516 263.4718 309.2489 30354.2821 249.0566 305.4203
ENERGY: 1200000 3.8843 15.4957 9.4033 0.0000 -10380.6289 1322.3649 0.0000 0.0000 1757.8274 -7271.6533 298.8947 -9029.4807 -7324.2167 298.5720 -612.2669 -520.3998 30411.3461 46.5398 107.1218
ENERGY: 1500000 4.3650 12.3319 8.3220 0.0000 -10628.6390 1430.9291 0.0000 0.0000 1758.5347 -7414.1562 299.0150 -9172.6909 -7346.7564 297.7383 -63.3919 62.1243 29839.2311 -12.4975 52.6797
TCL: Running FEP window  15: Lambda1 0.29999999999999966 Lambda2 0.24999999999999967 [dLambda -0.04999999999999999]
TCL: Setting parameter firsttimestep to 0
TCL: Setting parameter alchLambda to 0.29999999999999966
Info: NONBONDED TABLE R-SQUARED SPACING: 0.0625
Info: NONBONDED TABLE SIZE: 705 POINTS
TCL: Setting parameter alchLambda2 to 0.24999999999999967
Info: NONBONDED TABLE R-SQUARED SPACING: 0.0625
Info: NONBONDED TABLE SIZE: 705 POINTS
TCL: Running for 1500000 steps
ETITLE: TS BOND ANGLE DIHED IMPRP ELECT VDW BOUNDARY MISC KINETIC TOTAL TEMP POTENTIAL TOTALAVG TEMPAVG PRESSURE GPRESSURE VOLUME PRESSAVG GPRESSAVG
ENERGY: 0 4.3650 12.3319 8.3220 0.0000 -10628.6387 1431.0158 0.0000 0.0000 1757.6442 -7414.9597 298.8636 -9172.6040 -7414.9597 298.8636 -33.0323 51.0295 29839.2311 -33.0323 51.0295
ENERGY: 300000 4.9680 10.2344 11.3991 0.0000 -10686.4786 1538.7621 0.0000 0.0000 1752.3439 -7368.7711 297.9623 -9121.1149 -7353.1767 299.0743 1001.4664 1116.5630 29743.6037 613.8087 705.9465
ENERGY: 600000 5.7141 8.9363 9.4480 0.0000 -10696.8297 1505.3229 0.0000 0.0000 1745.3015 -7422.1070 296.7649 -9167.4085 -7364.7467 299.2192 468.6539 511.8673 29957.8689 381.1574 462.0998
ENERGY: 900000 7.7734 21.3787 8.1814 0.0000 -10509.9707 1348.2393 0.0000 0.0000 1738.6122 -7385.7858 295.6275 -9124.3979 -7368.4396 299.0450 -562.2202 -515.2868 29995.0120 218.0518 285.3340
ENERGY: 1200000 6.4743 17.5728 9.8765 0.0000 -10543.4392 1428.3002 0.0000 0.0000 1807.0616 -7274.1539 307.2663 -9081.2155 -7357.5022 299.3113 101.3912 195.2685 29989.4766 221.4408 290.0909
ENERGY: 1500000 8.1929 16.6976 11.2946 0.0000 -10643.4721 1491.7640 0.0000 0.0000 1761.8345 -7353.6886 299.5761 -9115.5231 -7356.7935 299.3581 509.9011 563.5961 30203.8901 261.4592 326.9626
TCL: Running FEP window  16: Lambda1 0.24999999999999967 Lambda2 0.19999999999999968 [dLambda -0.04999999999999999]
TCL: Setting parameter firsttimestep to 0
TCL: Setting parameter alchLambda to 0.24999999999999967
Info: NONBONDED TABLE R-SQUARED SPACING: 0.0625
Info: NONBONDED TABLE SIZE: 705 POINTS
TCL: Setting parameter alchLambda2 to 0.19999999999999968
Info: NONBONDED TABLE R-SQUARED SPACING: 0.0625
Info: NONBONDED TABLE SIZE: 705 POINTS
TCL: Running for 1500000 steps
ETITLE: TS BOND ANGLE DIHED IMPRP ELECT VDW BOUNDARY MISC KINETIC TOTAL TEMP POTENTIAL TOTALAVG TEMPAVG PRESSURE GPRESSURE VOLUME PRESSAVG GPRESSAVG
ENERGY: 0 8.1929 16.6976 11.2946 0.0000 -10643.4715 1492.7376 0.0000 0.0000 1761.0135 -7353.5353 299.4365 -9114.5488 -7353.5353 299.4365 487.8538 565.2330 30203.8901 487.8538 565.2330
ENERGY: 300000 5.4460 14.7036 9.8003 0.0000 -10497.4623 1377.1485 0.0000 0.0000 1759.2372 -7331.1267 299.1345 -9090.3638 -7323.4066 298.5158 -284.4580 -200.0088 29860.2648 46.0649 100.9690
ENERGY: 600000 3.7682 16.2048 5.6574 0.0000 -10711.9425 1500.6167 0.0000 0.0000 1793.7873 -7391.9080 305.0092 -9185.6953 -7340.6620 300.7098 213.9712 342.1981 30059.9114 18.9933 95.0665
ENERGY: 900000 11.5058 17.2992 12.2565 0.0000 -10469.8434 1388.5654 0.0000 0.0000 1748.4131 -7291.8034 297.2940 -9040.2165 -7332.8600 299.8019 -531.2544 -470.2604 30413.4275 -123.1075 -51.9940
ENERGY: 1200000 7.5864 10.5340 13.5561 0.0000 -10512.4374 1379.6490 0.0000 0.0000 1762.7263 -7338.3856 299.7277 -9101.1119 -7332.1264 299.7409 -480.9716 -386.4315 30021.2154 -75.1320 -6.1445
ENERGY: 1500000 4.5751 12.1581 12.4012 0.0000 -10395.4138 1343.7187 0.0000 0.0000 1742.2174 -7280.3433 296.2405 -9022.5607 -7324.1941 300.0891 -507.0245 -442.7189 30513.8731 -111.1987 -43.8473
TCL: Running FEP window  17: Lambda1 0.19999999999999968 Lambda2 0.1499999999999997 [dLambda -0.04999999999999999]
TCL: Setting parameter firsttimestep to 0
TCL: Setting parameter alchLambda to 0.19999999999999968
Info: NONBONDED TABLE R-SQUARED SPACING: 0.0625
Info: NONBONDED TABLE SIZE: 705 POINTS
TCL: Setting parameter alchLambda2 to 0.1499999999999997
Info: NONBONDED TABLE R-SQUARED SPACING: 0.0625
Info: NONBONDED TABLE SIZE: 705 POINTS
TCL: Running for 1500000 steps
ETITLE: TS BOND ANGLE DIHED IMPRP ELECT VDW BOUNDARY MISC KINETIC TOTAL TEMP POTENTIAL TOTALAVG TEMPAVG PRESSURE GPRESSURE VOLUME PRESSAVG GPRESSAVG
ENERGY: 0 4.5751 12.1581 12.4012 0.0000 -10395.4138 1344.0800 0.0000 0.0000 1741.3441 -7280.8553 296.0920 -9022.1994 -7280.8553 296.0920 -527.5599 -449.7500 30513.8731 -527.5599 -449.7500
ENERGY: 300000 10.1694 11.3580 9.2451 0.0000 -10450.6269 1362.8610 0.0000 0.0000 1769.9757 -7287.0177 300.9604 -9056.9934 -7307.5226 301.3694 -281.7226 -201.0634 30193.0815 -372.6187 -320.9625
ENERGY: 600000 3.8055 13.9110 8.0393 0.0000 -10543.2121 1448.8618 0.0000 0.0000 1705.6214 -7362.9731 290.0178 -9068.5945 -7329.1728 298.0540 521.3226 558.1472 29920.2628 -93.7690 -40.1571
ENERGY: 900000 9.8673 14.8890 6.9086 0.0000 -10552.6563 1451.2676 0.0000 0.0000 1719.8496 -7349.8742 292.4371 -9069.7239 -7345.2348 296.8192 -301.5052 -294.3389 31040.4716 -17.2689 31.0484
ENERGY: 1200000 8.5953 13.8750 11.7792 0.0000 -10556.8765 1455.6202 0.0000 0.0000 1766.3728 -7300.6339 300.3478 -9067.0068 -7341.1030 297.1184 73.6370 156.8305 30409.0357 34.0506 78.6991
ENERGY: 1500000 8.8958 10.8781 13.9184 0.0000 -10563.1827 1456.5699 0.0000 0.0000 1773.3266 -7299.5939 301.5302 -9072.9205 -7334.9170 298.3700 -26.1127 41.0534 30458.0339 -45.7152 -1.6878
TCL: Running FEP window  18: Lambda1 0.1499999999999997 Lambda2 0.09999999999999969 [dLambda -0.05 ]
TCL: Setting parameter firsttimestep to 0
TCL: Setting parameter alchLambda to 0.1499999999999997
Info: NONBONDED TABLE R-SQUARED SPACING: 0.0625
Info: NONBONDED TABLE SIZE: 705 POINTS
TCL: Setting parameter alchLambda2 to 0.09999999999999969
Info: NONBONDED TABLE R-SQUARED SPACING: 0.0625
Info: NONBONDED TABLE SIZE: 705 POINTS
TCL: Running for 1500000 steps
ETITLE: TS BOND ANGLE DIHED IMPRP ELECT VDW BOUNDARY MISC KINETIC TOTAL TEMP POTENTIAL TOTALAVG TEMPAVG PRESSURE GPRESSURE VOLUME PRESSAVG GPRESSAVG
ENERGY: 0 8.8958 10.8781 13.9184 0.0000 -10563.1830 1456.9065 0.0000 0.0000 1772.4576 -7300.1265 301.3824 -9072.5841 -7300.1265 301.3824 -40.1172 41.0288 30458.0339 -40.1172 41.0288
ENERGY: 300000 6.2110 17.8354 9.2783 0.0000 -10621.0488 1525.7753 0.0000 0.0000 1817.6358 -7244.3130 309.0644 -9061.9488 -7318.5448 303.0427 802.2455 795.1622 29978.8878 335.0191 395.9097
ENERGY: 600000 4.6162 14.4774 10.0317 0.0000 -10564.8449 1486.6226 0.0000 0.0000 1769.3065 -7279.7905 300.8466 -9049.0969 -7298.4925 304.1224 687.2994 750.4955 30086.1206 154.8946 213.8714
ENERGY: 900000 7.0749 17.7558 13.7671 0.0000 -10638.0354 1494.0788 0.0000 0.0000 1772.2564 -7333.1023 301.3482 -9105.3588 -7311.1210 302.3661 292.2669 352.2521 30381.8631 165.6876 224.3305
ENERGY: 1200000 5.2347 12.7820 8.1317 0.0000 -10610.1150 1493.3023 0.0000 0.0000 1766.6781 -7323.9863 300.3997 -9090.6644 -7325.4881 301.5810 539.9581 580.2911 30434.6264 203.9313 259.4259
ENERGY: 1500000 5.4797 14.9857 11.3690 0.0000 -10672.3407 1461.2238 0.0000 0.0000 1814.2050 -7365.0774 308.4810 -9179.2825 -7333.2384 301.4516 199.9803 246.8611 29600.2961 134.6942 194.4906
TCL: Running FEP window  19: Lambda1 0.09999999999999969 Lambda2 0.049999999999999684 [dLambda -0.05 ]
TCL: Setting parameter firsttimestep to 0
TCL: Setting parameter alchLambda to 0.09999999999999969
Info: NONBONDED TABLE R-SQUARED SPACING: 0.0625
Info: NONBONDED TABLE SIZE: 705 POINTS
TCL: Setting parameter alchLambda2 to 0.049999999999999684
Info: NONBONDED TABLE R-SQUARED SPACING: 0.0625
Info: NONBONDED TABLE SIZE: 705 POINTS
TCL: Running for 1500000 steps
ETITLE: TS BOND ANGLE DIHED IMPRP ELECT VDW BOUNDARY MISC KINETIC TOTAL TEMP POTENTIAL TOTALAVG TEMPAVG PRESSURE GPRESSURE VOLUME PRESSAVG GPRESSAVG
ENERGY: 0 5.4797 14.9857 11.3690 0.0000 -10672.3409 1461.0468 0.0000 0.0000 1813.3483 -7366.1114 308.3353 -9179.4597 -7366.1114 308.3353 167.8019 240.4875 29600.2961 167.8019 240.4875
ENERGY: 300000 2.6025 13.4658 9.8501 0.0000 -10491.0218 1363.8334 0.0000 0.0000 1773.3290 -7327.9410 301.5306 -9101.2700 -7334.6397 305.2779 -455.2061 -354.2876 30159.2839 -267.6394 -197.1332
ENERGY: 600000 7.7996 11.3573 9.3754 0.0000 -10444.7723 1390.5381 0.0000 0.0000 1732.4750 -7293.2270 294.5839 -9025.7019 -7311.9720 303.8268 32.2714 71.2332 29774.0934 -70.1848 -0.0119
ENERGY: 900000 7.1795 11.2046 4.8730 0.0000 -10387.1744 1333.4498 0.0000 0.0000 1783.1723 -7247.2953 303.2043 -9030.4676 -7299.7471 303.8209 -531.8338 -406.7923 30136.6936 -49.7539 22.1611
ENERGY: 1200000 8.1200 16.5972 6.5372 0.0000 -10581.7894 1472.4406 0.0000 0.0000 1861.4988 -7216.5956 316.5227 -9078.0944 -7297.4770 304.4016 417.0187 545.6883 30050.9357 -69.3014 1.8740
ENERGY: 1500000 8.7034 15.0384 8.1980 0.0000 -10622.7510 1473.2121 0.0000 0.0000 1788.7535 -7328.8456 304.1533 -9117.5991 -7299.1825 304.1665 174.6348 198.3296 29841.4217 -67.4416 4.3532
TCL: Running FEP window  20: Lambda1 0.049999999999999684 Lambda2 0.0    [dLambda -0.049999999999999684]
TCL: Setting parameter firsttimestep to 0
TCL: Setting parameter alchLambda to 0.049999999999999684
Info: NONBONDED TABLE R-SQUARED SPACING: 0.0625
Info: NONBONDED TABLE SIZE: 705 POINTS
TCL: Setting parameter alchLambda2 to 0.0
Info: NONBONDED TABLE R-SQUARED SPACING: 0.0625
Info: NONBONDED TABLE SIZE: 705 POINTS
TCL: Running for 1500000 steps
ETITLE: TS BOND ANGLE DIHED IMPRP ELECT VDW BOUNDARY MISC KINETIC TOTAL TEMP POTENTIAL TOTALAVG TEMPAVG PRESSURE GPRESSURE VOLUME PRESSAVG GPRESSAVG
ENERGY: 0 8.7034 15.0384 8.1980 0.0000 -10622.7514 1472.7741 0.0000 0.0000 1787.8710 -7330.1664 304.0033 -9118.0375 -7330.1664 304.0033 108.0574 192.5506 29841.4217 108.0574 192.5506
ENERGY: 300000 7.7535 17.7563 6.6931 0.0000 -10433.2684 1331.2387 0.0000 0.0000 1733.9360 -7335.8908 294.8323 -9069.8267 -7368.9642 300.9243 -839.5310 -784.3136 30656.8241 53.5159 110.4782
ENERGY: 600000 6.0580 17.1961 12.9870 0.0000 -10509.7249 1378.3738 0.0000 0.0000 1803.2491 -7291.8609 306.6181 -9095.1100 -7339.7643 301.9505 -699.9027 -624.6354 30546.2687 -193.8674 -129.0957
ENERGY: 900000 13.6293 16.7493 9.3251 0.0000 -10585.6550 1405.3742 0.0000 0.0000 1730.3419 -7410.2353 294.2212 -9140.5772 -7347.4428 300.2860 -601.5633 -506.3196 29782.1107 -291.3983 -222.0884
ENERGY: 1200000 8.0288 12.4045 10.0719 0.0000 -10480.5040 1354.8914 0.0000 0.0000 1797.0907 -7298.0167 305.5709 -9095.1074 -7347.4001 299.9274 -39.6021 -5.4117 29659.5985 -250.5022 -183.7941
ENERGY: 1500000 5.9010 15.5470 6.0957 0.0000 -10510.0409 1421.2884 0.0000 0.0000 1748.3221 -7312.8866 297.2785 -9061.2087 -7343.3959 300.3180 379.2498 423.8238 29971.6170 -178.4397 -119.8346
TCL: Exiting due to exit command.
