Info: SIMULATION PARAMETERS:
Info: TIMESTEP               2
Info: NUMBER OF STEPS        0
Info: STEPS PER CYCLE        10
Info: PERIODIC CELL BASIS 1  34.265 0 0
Info: PERIODIC CELL BASIS 2  0 29.4534 0
Info: PERIODIC CELL BASIS 3  0 0 30.1808
Info: PERIODIC CELL CENTER   0 0 0
Info: WRAPPING WATERS AROUND PERIODIC BOUNDARIES ON OUTPUT.
Info: WRAPPING ALL CLUSTERS AROUND PERIODIC BOUNDARIES ON OUTPUT.
Info: FIRST LDB TIMESTEP     50
Info: LAST LDB TIMESTEP     -1
Info: HOM BACKGROUND SCALING 1
Info: PME BACKGROUND SCALING 1
Info: MIN ATOMS PER PATCH    40
Info: EMPTY PATCH LOAD       40 ATOMS
Info: VELOCITY FILE          mobley_1770205_equil.vel
Info: CENTER OF MASS MOVING INITIALLY? NO
Info: DIELECTRIC             1
Info: EXCLUDE                SCALED ONE-FOUR
Info: 1-4 ELECTROSTATICS SCALED BY 0.833333
Info: MODIFIED 1-4 VDW PARAMETERS WILL BE USED
Info: DCD FILENAME           mobley_1770205_prod.dcd
Info: DCD FREQUENCY          100000
Info: DCD FIRST STEP         100000
Info: DCD FILE WILL CONTAIN UNIT CELL DATA
Info: XST FILENAME           mobley_1770205_prod.xst
Info: XST FREQUENCY          100000
Info: NO VELOCITY DCD OUTPUT
Info: NO FORCE DCD OUTPUT
Info: OUTPUT FILENAME        mobley_1770205_prod
Info: BINARY OUTPUT FILES WILL BE USED
Info: RESTART FILENAME       mobley_1770205_prod.restart
Info: RESTART FREQUENCY      100000
Info: BINARY RESTART FILES WILL BE USED
Info: CUTOFF                 9
Info: PAIRLIST DISTANCE      11
Info: PAIRLIST SHRINK RATE   0.01
Info: PAIRLIST GROW RATE     0.01
Info: PAIRLIST TRIGGER       0.3
Info: PAIRLISTS PER CYCLE    2
Info: PAIRLISTS ENABLED
Info: MARGIN                 2
Info: HYDROGEN GROUP CUTOFF  2.5
Info: PATCH DIMENSION        15.5
Info: ENERGY OUTPUT STEPS    100000
Info: ENERGY EVALUATION STEPS    100000
Info: OUTPUT ENERGY PRECISION 4
Info: CROSSTERM ENERGY INCLUDED IN DIHEDRAL
Info: TIMING OUTPUT STEPS    1000000
Info: PRESSURE OUTPUT STEPS  100000
Info: ALCHEMICAL FEP ON
Info: FEP CURRENT LAMBDA VALUE     0
Info: FEP COMPARISON LAMBDA VALUE  0.05
Info: FEP INTRA-ALCHEMICAL NON-BONDED INTERACTIONS WILL BE RETAINED
Info: FEP INTRA-ALCHEMICAL BONDED INTERACTIONS WILL BE RETAINED
Info: FEP VDW SHIFTING COEFFICIENT 5
Info: FEP ELEC. ACTIVE FOR ANNIHILATED PARTICLES BETWEEN LAMBDA = 0 AND LAMBDA = 0.5
Info: FEP ELEC. ACTIVE FOR EXNIHILATED PARTICLES BETWEEN LAMBDA = 0.5 AND LAMBDA = 1
Info: FEP VDW ACTIVE FOR ANNIHILATED PARTICLES BETWEEN LAMBDA = 0 AND LAMBDA = 1
Info: FEP VDW ACTIVE FOR EXNIHILATED PARTICLES BETWEEN LAMBDA = 0 AND LAMBDA = 1
Info: FEP BOND ACTIVE FOR ANNIHILATED PARTICLES BETWEEN LAMBDA = 1 AND LAMBDA = 1
Info: FEP BOND ACTIVE FOR EXNIHILATED PARTICLES BETWEEN LAMBDA = 0 AND LAMBDA = 0
Info: LANGEVIN DYNAMICS ACTIVE
Info: LANGEVIN TEMPERATURE   300
Info: LANGEVIN USING BBK INTEGRATOR
Info: LANGEVIN DAMPING COEFFICIENT IS 1 INVERSE PS
Info: LANGEVIN DYNAMICS APPLIED TO HYDROGENS
Info: LANGEVIN PISTON PRESSURE CONTROL ACTIVE
Info:        TARGET PRESSURE IS 1.01325 BAR
Info:     OSCILLATION PERIOD IS 50 FS
Info:             DECAY TIME IS 25 FS
Info:     PISTON TEMPERATURE IS 300 K
Info:       PRESSURE CONTROL IS GROUP-BASED
Info:    INITIAL STRAIN RATE IS -0.0001925 -0.0001925 -0.0001925
Info:       CELL FLUCTUATION IS ISOTROPIC
Info: PARTICLE MESH EWALD (PME) ACTIVE
Info: PME TOLERANCE               1e-06
Info: PME EWALD COEFFICIENT       0.348832
Info: PME INTERPOLATION ORDER     4
Info: PME GRID DIMENSIONS         36 32 32
Info: PME MAXIMUM GRID SPACING    1
Info: PME CALCULATION WILL BE PERFORMED ON GPU
Info: FULL ELECTROSTATIC EVALUATION FREQUENCY      2
Info: USING VERLET I (r-RESPA) MTS SCHEME.
Info: C1 SPLITTING OF LONG RANGE ELECTROSTATICS
Info: PLACING ATOMS IN PATCHES BY HYDROGEN GROUPS
Info: RIGID BONDS TO HYDROGEN : ALL
Info:         ERROR TOLERANCE : 1e-08
Info:          MAX ITERATIONS : 100
Info: RIGID WATER USING SETTLE ALGORITHM
Info: RANDOM NUMBER SEED     1744043003
Info: USE HYDROGEN BONDS?    NO
Info: Using AMBER format force field!
Info: AMBER PARM FILE        mobley_1770205.prmtop
Info: COORDINATE PDB         mobley_1770205.pdb
Info: Exclusions will be read from PARM file!
Info: SCNB (VDW SCALING)     2
Info: USING ARITHMETIC MEAN TO COMBINE L-J SIGMA PARAMETERS
Info: BINARY COORDINATES     mobley_1770205_equil.coor
Info: SUMMARY OF PARAMETERS:
Info: 18 BONDS
Info: 24 ANGLES
Info:   24 HARMONIC
Info:   0 COSINE-BASED
Info: 14 DIHEDRAL
Info: 0 IMPROPER
Info: 0 CROSSTERM
Info: 0 VDW
Info: 78 VDW_PAIRS
Info: 0 NBTHOLE_PAIRS
Info: To read alchdata from file: mobley_1770205.pdb
Info: To read alchflag data from column: 5
Info: STRUCTURE SUMMARY:
Info: 2932 ATOMS
Info: 2933 BONDS
Info: 53 ANGLES
Info: 71 DIHEDRALS
Info: 0 IMPROPERS
Info: 0 CROSSTERMS
Info: 3041 EXCLUSIONS
Info: 2913 RIGID BONDS
Info: ALCH: 0 ATOMS TO DISAPPEAR IN FINAL STATE
Info: ALCH: 31 ATOMS TO APPEAR IN FINAL STATE
Info: 5883 DEGREES OF FREEDOM
Info: 986 HYDROGEN GROUPS
Info: 4 ATOMS IN LARGEST HYDROGEN GROUP
Info: 986 MIGRATION GROUPS
Info: 4 ATOMS IN LARGEST MIGRATION GROUP
Info: TOTAL MASS = 17738.8 amu
Info: TOTAL CHARGE = 9.99719e-05 e
Info: MASS DENSITY = 0.967088 g/cm^3
Info: ATOM DENSITY = 0.0962602 atoms/A^3
Info: ADDED 0 IMPLICIT EXCLUSIONS
Info: NONBONDED TABLE R-SQUARED SPACING: 0.0625
Info: NONBONDED TABLE SIZE: 705 POINTS
Info: REMOVING COM VELOCITY 0.00676351 -0.0928405 -0.00574578
Info: Use 3D box decompostion in PME FFT.
Info: Updated CUDA force table with 4096 elements.
Info: Updated CUDA LJ table with 12 x 12 elements.
Info: Found 30 unique exclusion lists needing 112 bytes
TCL: Running for 1500000 steps
ETITLE: TS BOND ANGLE DIHED IMPRP ELECT VDW BOUNDARY MISC KINETIC TOTAL TEMP POTENTIAL TOTALAVG TEMPAVG PRESSURE GPRESSURE VOLUME PRESSAVG GPRESSAVG
ENERGY: 0 7.3139 20.1028 21.4145 0.0000 -10583.7365 1422.2406 0.0000 0.0000 1752.3145 -7360.3503 299.7806 -9112.6647 -7360.3503 299.7806 -253.3660 -169.9305 30459.0979 -253.3660 -169.9305
ENERGY: 300000 7.3729 16.5961 19.1439 0.0000 -10668.6087 1450.5931 0.0000 0.0000 1776.7777 -7398.1250 303.9657 -9174.9027 -7369.6655 302.9145 40.1672 91.1257 29845.6087 152.7654 231.5891
ENERGY: 600000 6.7302 22.7266 20.0660 0.0000 -10580.4855 1373.0405 0.0000 0.0000 1733.8129 -7424.1092 296.6155 -9157.9221 -7400.9915 300.7349 -350.7184 -272.4387 30026.4811 27.3477 96.8726
ENERGY: 900000 4.0058 19.9667 18.4595 0.0000 -10647.4044 1407.5441 0.0000 0.0000 1721.2695 -7476.1588 294.4696 -9197.4283 -7418.2956 298.4890 -419.8717 -372.3220 30300.4839 -75.5646 -3.5485
ENERGY: 1200000 3.0728 19.2569 21.0555 0.0000 -10700.4756 1473.9494 0.0000 0.0000 1815.9190 -7367.2219 310.6619 -9183.1409 -7413.7262 299.8778 116.1657 164.8581 30133.6218 -54.2261 12.6772
ENERGY: 1500000 8.0181 16.9818 20.9508 0.0000 -10653.4178 1416.9603 0.0000 0.0000 1729.8787 -7460.6281 295.9424 -9190.5068 -7426.3532 299.5523 -29.3826 57.8995 29752.1004 14.6894 77.7927
TCL: Running FEP window   2: Lambda1 0.05   Lambda2 0.1    [dLambda 0.05  ]
TCL: Setting parameter firsttimestep to 0
TCL: Setting parameter alchLambda to 0.05
Info: NONBONDED TABLE R-SQUARED SPACING: 0.0625
Info: NONBONDED TABLE SIZE: 705 POINTS
TCL: Setting parameter alchLambda2 to 0.1
Info: NONBONDED TABLE R-SQUARED SPACING: 0.0625
Info: NONBONDED TABLE SIZE: 705 POINTS
TCL: Running for 1500000 steps
ETITLE: TS BOND ANGLE DIHED IMPRP ELECT VDW BOUNDARY MISC KINETIC TOTAL TEMP POTENTIAL TOTALAVG TEMPAVG PRESSURE GPRESSURE VOLUME PRESSAVG GPRESSAVG
ENERGY: 0 8.0181 16.9818 20.9508 0.0000 -10653.4166 1429.9518 0.0000 0.0000 1728.9768 -7448.5373 295.7881 -9177.5142 -7448.5373 295.7881 3.5519 83.5969 29752.1004 3.5519 83.5969
ENERGY: 300000 8.5109 19.8784 20.6471 0.0000 -10760.6257 1505.9612 0.0000 0.0000 1742.3193 -7463.3088 298.0707 -9205.6281 -7447.4445 295.6208 316.1761 436.3463 29959.5265 393.1675 458.8865
ENERGY: 600000 5.0169 19.0122 19.8443 0.0000 -10710.1170 1464.1215 0.0000 0.0000 1742.7398 -7459.3822 298.1426 -9202.1220 -7450.1186 297.4346 515.6196 557.0456 29423.1863 281.3500 344.3785
ENERGY: 900000 8.2612 22.8685 20.0188 0.0000 -10715.3393 1464.8649 0.0000 0.0000 1728.3023 -7471.0236 295.6727 -9199.3259 -7451.7100 298.1326 247.3913 329.3151 29582.7101 260.4127 324.4059
ENERGY: 1200000 7.6531 20.7178 17.9790 0.0000 -10635.9439 1445.3671 0.0000 0.0000 1743.3090 -7400.9180 298.2400 -9144.2270 -7441.7961 298.4335 -132.0804 -69.2493 30055.0024 179.1094 250.5849
ENERGY: 1500000 4.1149 17.2597 19.6492 0.0000 -10648.3719 1454.9620 0.0000 0.0000 1758.9139 -7393.4722 300.9096 -9152.3861 -7434.2699 298.6511 483.4189 494.6699 29594.3290 166.5585 233.1753
TCL: Running FEP window   3: Lambda1 0.1    Lambda2 0.15000000000000002 [dLambda 0.05000000000000002]
TCL: Setting parameter firsttimestep to 0
TCL: Setting parameter alchLambda to 0.1
Info: NONBONDED TABLE R-SQUARED SPACING: 0.0625
Info: NONBONDED TABLE SIZE: 705 POINTS
TCL: Setting parameter alchLambda2 to 0.15000000000000002
Info: NONBONDED TABLE R-SQUARED SPACING: 0.0625
Info: NONBONDED TABLE SIZE: 705 POINTS
TCL: Running for 1500000 steps
ETITLE: TS BOND ANGLE DIHED IMPRP ELECT VDW BOUNDARY MISC KINETIC TOTAL TEMP POTENTIAL TOTALAVG TEMPAVG PRESSURE GPRESSURE VOLUME PRESSAVG GPRESSAVG
ENERGY: 0 4.1149 17.2598 19.6491 0.0000 -10648.3711 1460.3019 0.0000 0.0000 1758.0347 -7389.0107 300.7592 -9147.0454 -7389.0107 300.7592 425.8268 519.3494 29594.3290 425.8268 519.3494
ENERGY: 300000 13.1177 20.8319 16.1218 0.0000 -10589.5345 1423.5862 0.0000 0.0000 1743.9810 -7371.8960 298.3550 -9115.8770 -7384.0885 296.4322 -320.3673 -271.8391 30274.3036 -0.6796 48.6039
ENERGY: 600000 3.1468 19.1631 21.7886 0.0000 -10610.4346 1401.9169 0.0000 0.0000 1780.6845 -7383.7347 304.6341 -9164.4192 -7391.9047 298.0844 47.3092 124.7985 29583.2500 37.0544 90.9533
ENERGY: 900000 7.7315 15.9746 21.2324 0.0000 -10650.0213 1461.9828 0.0000 0.0000 1782.1534 -7360.9465 304.8854 -9143.0999 -7402.3915 298.9426 331.6334 422.6555 29708.8129 -79.6285 -21.6724
ENERGY: 1200000 6.2737 16.4342 19.4720 0.0000 -10691.4391 1475.9862 0.0000 0.0000 1777.2788 -7395.9943 304.0515 -9173.2731 -7401.6583 299.7945 457.1878 529.0985 29855.4172 22.2802 83.0514
ENERGY: 1500000 7.4080 20.6906 23.5362 0.0000 -10609.9651 1405.0726 0.0000 0.0000 1768.1465 -7385.1113 302.4891 -9153.2578 -7397.9613 299.8046 -291.0195 -241.9482 30150.4330 -68.5308 -8.9137
TCL: Running FEP window   4: Lambda1 0.15000000000000002 Lambda2 0.2    [dLambda 0.04999999999999999]
TCL: Setting parameter firsttimestep to 0
TCL: Setting parameter alchLambda to 0.15000000000000002
Info: NONBONDED TABLE R-SQUARED SPACING: 0.0625
Info: NONBONDED TABLE SIZE: 705 POINTS
TCL: Setting parameter alchLambda2 to 0.2
Info: NONBONDED TABLE R-SQUARED SPACING: 0.0625
Info: NONBONDED TABLE SIZE: 705 POINTS
TCL: Running for 1500000 steps
ETITLE: TS BOND ANGLE DIHED IMPRP ELECT VDW BOUNDARY MISC KINETIC TOTAL TEMP POTENTIAL TOTALAVG TEMPAVG PRESSURE GPRESSURE VOLUME PRESSAVG GPRESSAVG
ENERGY: 0 7.4080 20.6906 23.5362 0.0000 -10609.9633 1407.5044 0.0000 0.0000 1767.2905 -7383.5336 302.3427 -9150.8241 -7383.5336 302.3427 -321.0160 -223.9602 30150.4330 -321.0160 -223.9602
ENERGY: 300000 5.8896 18.6729 21.9044 0.0000 -10624.7350 1417.6985 0.0000 0.0000 1780.8310 -7379.7385 304.6592 -9160.5695 -7363.7342 304.3709 -66.3078 16.2596 29903.4548 39.2006 107.8064
ENERGY: 600000 5.8665 16.5392 18.2449 0.0000 -10517.0760 1342.8758 0.0000 0.0000 1726.6026 -7406.9471 295.3819 -9133.5497 -7404.1958 300.3343 -656.2677 -551.4225 30035.3042 123.3355 186.8921
ENERGY: 900000 6.7992 22.0782 22.3750 0.0000 -10636.9603 1409.2476 0.0000 0.0000 1785.8743 -7390.5860 305.5220 -9176.4603 -7407.5010 301.2519 -419.7718 -318.8648 30129.7257 -53.0120 7.2389
ENERGY: 1200000 6.7910 18.1924 19.6504 0.0000 -10586.0881 1359.8936 0.0000 0.0000 1761.4806 -7420.0801 301.3488 -9181.5607 -7421.0663 300.3547 -716.0656 -621.8961 30223.0401 -54.8280 8.8796
ENERGY: 1500000 5.3339 17.8640 18.1159 0.0000 -10607.0664 1385.7677 0.0000 0.0000 1706.4671 -7473.5179 291.9372 -9179.9850 -7427.9343 299.5440 -423.1792 -384.4981 30401.2622 -121.3351 -62.9322
TCL: Running FEP window   5: Lambda1 0.2    Lambda2 0.25   [dLambda 0.04999999999999999]
TCL: Setting parameter firsttimestep to 0
TCL: Setting parameter alchLambda to 0.2
Info: NONBONDED TABLE R-SQUARED SPACING: 0.0625
Info: NONBONDED TABLE SIZE: 705 POINTS
TCL: Setting parameter alchLambda2 to 0.25
Info: NONBONDED TABLE R-SQUARED SPACING: 0.0625
Info: NONBONDED TABLE SIZE: 705 POINTS
TCL: Running for 1500000 steps
ETITLE: TS BOND ANGLE DIHED IMPRP ELECT VDW BOUNDARY MISC KINETIC TOTAL TEMP POTENTIAL TOTALAVG TEMPAVG PRESSURE GPRESSURE VOLUME PRESSAVG GPRESSAVG
ENERGY: 0 5.3338 17.8640 18.1159 0.0000 -10607.0670 1386.5380 0.0000 0.0000 1705.6002 -7473.6150 291.7889 -9179.2152 -7473.6150 291.7889 -462.2618 -374.5109 30401.2622 -462.2618 -374.5109
ENERGY: 300000 7.5093 21.3858 23.6831 0.0000 -10748.1862 1428.7031 0.0000 0.0000 1771.9844 -7494.9206 303.1457 -9266.9050 -7448.5233 300.0283 -422.2791 -348.0439 29978.9954 -195.2017 -124.2897
ENERGY: 600000 6.4474 17.4683 22.2396 0.0000 -10668.2905 1399.9609 0.0000 0.0000 1743.8998 -7478.2744 298.3411 -9222.1742 -7437.1238 301.2070 -336.6179 -355.1220 30266.9826 -108.7416 -31.7536
ENERGY: 900000 11.2938 15.9480 16.3365 0.0000 -10572.7387 1341.7648 0.0000 0.0000 1746.7070 -7440.6886 298.8213 -9187.3956 -7434.9890 299.7086 -1127.4754 -980.0952 30018.9927 -259.1583 -177.9895
ENERGY: 1200000 7.8150 20.9925 19.7725 0.0000 -10568.2579 1339.7917 0.0000 0.0000 1727.8214 -7452.0649 295.5904 -9179.8863 -7443.5355 298.4790 -906.5919 -853.9632 30155.1090 -258.8580 -181.0398
ENERGY: 1500000 5.4639 22.7891 21.4807 0.0000 -10780.8675 1526.6634 0.0000 0.0000 1756.3931 -7448.0774 300.4784 -9204.4704 -7433.2419 298.6056 961.8776 1090.8392 29326.6701 -155.2106 -79.1122
TCL: Running FEP window   6: Lambda1 0.25   Lambda2 0.3    [dLambda 0.04999999999999999]
TCL: Setting parameter firsttimestep to 0
TCL: Setting parameter alchLambda to 0.25
Info: NONBONDED TABLE R-SQUARED SPACING: 0.0625
Info: NONBONDED TABLE SIZE: 705 POINTS
TCL: Setting parameter alchLambda2 to 0.3
Info: NONBONDED TABLE R-SQUARED SPACING: 0.0625
Info: NONBONDED TABLE SIZE: 705 POINTS
TCL: Running for 1500000 steps
ETITLE: TS BOND ANGLE DIHED IMPRP ELECT VDW BOUNDARY MISC KINETIC TOTAL TEMP POTENTIAL TOTALAVG TEMPAVG PRESSURE GPRESSURE VOLUME PRESSAVG GPRESSAVG
ENERGY: 0 5.4639 22.7891 21.4807 0.0000 -10780.8682 1527.0288 0.0000 0.0000 1755.5470 -7448.5587 300.3337 -9204.1057 -7448.5587 300.3337 1006.7335 1099.1639 29326.6701 1006.7335 1099.1639
ENERGY: 300000 7.2241 18.0177 18.4400 0.0000 -10684.2546 1454.0000 0.0000 0.0000 1767.2955 -7419.2773 302.3436 -9186.5728 -7448.1035 298.4013 120.9405 117.2032 29930.3558 412.7722 454.3371
ENERGY: 600000 6.9373 17.1771 19.9586 0.0000 -10481.9538 1353.3169 0.0000 0.0000 1716.8512 -7367.7128 293.7137 -9084.5639 -7437.0057 298.8696 -626.3934 -560.4112 30446.0219 383.2756 437.3128
ENERGY: 900000 4.3905 19.0851 19.9569 0.0000 -10605.9684 1412.5835 0.0000 0.0000 1765.5889 -7384.3634 302.0516 -9149.9523 -7427.0099 299.7805 342.2043 376.2046 29779.8562 247.9995 294.6230
ENERGY: 1200000 8.0035 13.8998 21.5800 0.0000 -10658.9290 1445.2750 0.0000 0.0000 1764.0437 -7406.1270 301.7872 -9170.1707 -7420.5198 300.0382 245.1033 248.2957 29824.4532 189.0781 239.2449
ENERGY: 1500000 6.8565 19.4061 19.2932 0.0000 -10535.4959 1334.3831 0.0000 0.0000 1773.8722 -7381.6849 303.4687 -9155.5571 -7409.3009 300.5462 -697.8855 -643.7478 30525.9247 21.4266 79.6324
TCL: Running FEP window   7: Lambda1 0.3    Lambda2 0.35   [dLambda 0.04999999999999999]
TCL: Setting parameter firsttimestep to 0
TCL: Setting parameter alchLambda to 0.3
Info: NONBONDED TABLE R-SQUARED SPACING: 0.0625
Info: NONBONDED TABLE SIZE: 705 POINTS
TCL: Setting parameter alchLambda2 to 0.35
Info: NONBONDED TABLE R-SQUARED SPACING: 0.0625
Info: NONBONDED TABLE SIZE: 705 POINTS
TCL: Running for 1500000 steps
ETITLE: TS BOND ANGLE DIHED IMPRP ELECT VDW BOUNDARY MISC KINETIC TOTAL TEMP POTENTIAL TOTALAVG TEMPAVG PRESSURE GPRESSURE VOLUME PRESSAVG GPRESSAVG
ENERGY: 0 6.8565 19.4061 19.2932 0.0000 -10535.4949 1334.3823 0.0000 0.0000 1773.0107 -7382.5461 303.3213 -9155.5569 -7382.5461 303.3213 -718.9768 -633.4407 30525.9247 -718.9768 -633.4407
ENERGY: 300000 5.7636 16.1221 19.5351 0.0000 -10702.3187 1470.6931 0.0000 0.0000 1730.7282 -7459.4767 296.0877 -9190.2049 -7421.3929 300.7970 202.2735 293.7263 30103.9645 -6.5797 77.8380
ENERGY: 600000 11.8894 19.8254 18.7838 0.0000 -10640.5115 1449.2723 0.0000 0.0000 1710.1329 -7430.6077 292.5643 -9140.7406 -7425.3047 298.5418 407.7153 451.5897 30222.1954 -37.3000 32.0133
ENERGY: 900000 7.5562 17.5105 20.3156 0.0000 -10698.7782 1428.8294 0.0000 0.0000 1770.7845 -7453.7819 302.9404 -9224.5665 -7425.4281 298.8966 -350.7566 -271.2266 30201.8150 -179.2608 -116.8697
ENERGY: 1200000 5.2209 20.7083 18.1184 0.0000 -10553.3759 1369.9225 0.0000 0.0000 1774.5423 -7364.8636 303.5833 -9139.4058 -7426.3776 299.6421 -278.6526 -187.7789 30117.5752 -152.6965 -93.1038
ENERGY: 1500000 5.2728 18.5464 20.6998 0.0000 -10694.3654 1436.8509 0.0000 0.0000 1771.6435 -7441.3521 303.0874 -9212.9955 -7424.4778 299.8928 203.3476 263.1380 30031.5701 -118.9923 -61.2312
TCL: Running FEP window   8: Lambda1 0.35   Lambda2 0.39999999999999997 [dLambda 0.04999999999999999]
TCL: Setting parameter firsttimestep to 0
TCL: Setting parameter alchLambda to 0.35
Info: NONBONDED TABLE R-SQUARED SPACING: 0.0625
Info: NONBONDED TABLE SIZE: 705 POINTS
TCL: Setting parameter alchLambda2 to 0.39999999999999997
Info: NONBONDED TABLE R-SQUARED SPACING: 0.0625
Info: NONBONDED TABLE SIZE: 705 POINTS
TCL: Running for 1500000 steps
ETITLE: TS BOND ANGLE DIHED IMPRP ELECT VDW BOUNDARY MISC KINETIC TOTAL TEMP POTENTIAL TOTALAVG TEMPAVG PRESSURE GPRESSURE VOLUME PRESSAVG GPRESSAVG
ENERGY: 0 5.2728 18.5464 20.6998 0.0000 -10694.3656 1435.8609 0.0000 0.0000 1770.7927 -7443.1931 302.9418 -9213.9858 -7443.1931 302.9418 189.8039 267.5265 30031.5701 189.8039 267.5265
ENERGY: 300000 5.6516 20.6232 19.8840 0.0000 -10712.6644 1478.0284 0.0000 0.0000 1799.5602 -7388.9170 307.8633 -9188.4772 -7417.2396 302.0711 377.8176 469.5906 29988.3316 96.7909 205.0287
ENERGY: 600000 4.9996 16.5397 24.5865 0.0000 -10736.7920 1477.5008 0.0000 0.0000 1732.5310 -7480.6344 296.3961 -9213.1654 -7404.6990 300.5528 389.2341 494.4053 29931.2359 128.6447 212.1753
ENERGY: 900000 4.4706 17.8664 17.5117 0.0000 -10655.8578 1427.8723 0.0000 0.0000 1722.1745 -7465.9623 294.6244 -9188.1369 -7417.4693 300.5467 104.8234 180.9500 29824.1796 143.0969 225.8966
ENERGY: 1200000 4.8965 17.8492 19.0384 0.0000 -10783.8730 1481.9050 0.0000 0.0000 1733.9665 -7526.2174 296.6417 -9260.1839 -7412.4373 301.0439 76.1250 205.7284 30002.8001 159.7153 243.0542
ENERGY: 1500000 8.6391 20.5748 21.5204 0.0000 -10667.0193 1439.2008 0.0000 0.0000 1777.9054 -7399.1787 304.1587 -9177.0842 -7415.2016 300.9959 239.3974 297.8861 29795.5592 83.0942 159.8953
TCL: Running FEP window   9: Lambda1 0.39999999999999997 Lambda2 0.44999999999999996 [dLambda 0.04999999999999999]
TCL: Setting parameter firsttimestep to 0
TCL: Setting parameter alchLambda to 0.39999999999999997
Info: NONBONDED TABLE R-SQUARED SPACING: 0.0625
Info: NONBONDED TABLE SIZE: 705 POINTS
TCL: Setting parameter alchLambda2 to 0.44999999999999996
Info: NONBONDED TABLE R-SQUARED SPACING: 0.0625
Info: NONBONDED TABLE SIZE: 705 POINTS
TCL: Running for 1500000 steps
ETITLE: TS BOND ANGLE DIHED IMPRP ELECT VDW BOUNDARY MISC KINETIC TOTAL TEMP POTENTIAL TOTALAVG TEMPAVG PRESSURE GPRESSURE VOLUME PRESSAVG GPRESSAVG
ENERGY: 0 8.6391 20.5748 21.5204 0.0000 -10667.0215 1438.5113 0.0000 0.0000 1777.0353 -7400.7407 304.0098 -9177.7760 -7400.7407 304.0098 234.6928 306.1329 29795.5592 234.6928 306.1329
ENERGY: 300000 6.3333 17.3477 20.3778 0.0000 -10597.1735 1367.1353 0.0000 0.0000 1745.0611 -7440.9183 298.5398 -9185.9794 -7406.8047 299.2438 -456.3016 -377.4336 30074.3861 -255.0585 -191.7711
ENERGY: 600000 7.2987 23.5681 19.2412 0.0000 -10598.7920 1415.1558 0.0000 0.0000 1761.3640 -7372.1641 301.3288 -9133.5281 -7415.3259 298.9090 34.9427 52.6029 30146.6702 -257.1376 -199.8542
ENERGY: 900000 7.3208 18.2406 19.5775 0.0000 -10683.2566 1413.4508 0.0000 0.0000 1772.2856 -7452.3812 303.1972 -9224.6668 -7425.2118 299.8927 -444.7711 -394.1172 30169.8981 -238.7296 -181.9578
ENERGY: 1200000 5.1130 20.7437 19.4725 0.0000 -10627.6450 1458.2282 0.0000 0.0000 1746.2949 -7377.7926 298.7508 -9124.0875 -7428.0918 298.9050 235.8609 337.6422 30043.9792 -257.9186 -195.1907
ENERGY: 1500000 4.8043 18.8938 16.7607 0.0000 -10656.2894 1412.7476 0.0000 0.0000 1700.0770 -7503.0060 290.8440 -9203.0830 -7433.6428 298.2259 -373.5737 -317.2132 30124.5954 -290.3928 -226.4915
TCL: Running FEP window  10: Lambda1 0.44999999999999996 Lambda2 0.49999999999999994 [dLambda 0.04999999999999999]
TCL: Setting parameter firsttimestep to 0
TCL: Setting parameter alchLambda to 0.44999999999999996
Info: NONBONDED TABLE R-SQUARED SPACING: 0.0625
Info: NONBONDED TABLE SIZE: 705 POINTS
TCL: Setting parameter alchLambda2 to 0.49999999999999994
Info: NONBONDED TABLE R-SQUARED SPACING: 0.0625
Info: NONBONDED TABLE SIZE: 705 POINTS
TCL: Running for 1500000 steps
ETITLE: TS BOND ANGLE DIHED IMPRP ELECT VDW BOUNDARY MISC KINETIC TOTAL TEMP POTENTIAL TOTALAVG TEMPAVG PRESSURE GPRESSURE VOLUME PRESSAVG GPRESSAVG
ENERGY: 0 4.8043 18.8938 16.7607 0.0000 -10656.2896 1412.9727 0.0000 0.0000 1699.2263 -7503.6319 290.6985 -9202.8582 -7503.6319 290.6985 -379.5777 -302.7706 30124.5954 -379.5777 -302.7706
ENERGY: 300000 7.5965 16.6014 20.5101 0.0000 -10659.1072 1453.1070 0.0000 0.0000 1740.5372 -7420.7549 297.7658 -9161.2921 -7452.8020 296.5089 115.8350 130.0728 30319.9765 -317.8339 -280.2113
ENERGY: 600000 7.0180 25.9378 20.2623 0.0000 -10619.1692 1409.6546 0.0000 0.0000 1731.5051 -7424.7915 296.2206 -9156.2966 -7429.1836 298.0090 -228.2169 -219.8767 30616.9467 -192.6253 -146.5953
ENERGY: 900000 8.5026 23.2982 21.0897 0.0000 -10572.2748 1384.8291 0.0000 0.0000 1753.0212 -7381.5339 299.9015 -9134.5551 -7422.8893 298.4131 74.7110 100.0055 30071.7452 -159.2232 -118.8438
ENERGY: 1200000 3.8850 16.5698 20.0407 0.0000 -10515.0408 1395.9615 0.0000 0.0000 1672.5748 -7406.0090 286.1390 -9078.5837 -7416.3751 297.3143 122.7468 168.7315 30337.3007 -160.6891 -118.9273
ENERGY: 1500000 2.9952 18.3986 22.4918 0.0000 -10616.2019 1422.2052 0.0000 0.0000 1749.4938 -7400.6173 299.2981 -9150.1111 -7410.1502 298.7120 -85.0216 -33.4457 30231.3850 -245.3463 -197.0355
TCL: Running FEP window  11: Lambda1 0.49999999999999994 Lambda2 0.5499999999999999 [dLambda 0.04999999999999999]
TCL: Setting parameter firsttimestep to 0
TCL: Setting parameter alchLambda to 0.49999999999999994
Info: NONBONDED TABLE R-SQUARED SPACING: 0.0625
Info: NONBONDED TABLE SIZE: 705 POINTS
TCL: Setting parameter alchLambda2 to 0.5499999999999999
Info: NONBONDED TABLE R-SQUARED SPACING: 0.0625
Info: NONBONDED TABLE SIZE: 705 POINTS
TCL: Running for 1500000 steps
ETITLE: TS BOND ANGLE DIHED IMPRP ELECT VDW BOUNDARY MISC KINETIC TOTAL TEMP POTENTIAL TOTALAVG TEMPAVG PRESSURE GPRESSURE VOLUME PRESSAVG GPRESSAVG
ENERGY: 0 2.9952 18.3985 22.4918 0.0000 -10616.2019 1422.0647 0.0000 0.0000 1748.6228 -7401.6289 299.1491 -9150.2516 -7401.6289 299.1491 -97.3094 -19.9660 30231.3850 -97.3094 -19.9660
ENERGY: 300000 5.2068 18.8036 18.4937 0.0000 -10701.9398 1414.3995 0.0000 0.0000 1736.3699 -7508.6664 297.0529 -9245.0363 -7434.6090 298.4367 60.4083 131.3269 29821.0918 -469.7721 -400.7738
ENERGY: 600000 3.9436 17.8874 18.5692 0.0000 -10690.0096 1403.1674 0.0000 0.0000 1764.6197 -7481.8224 301.8858 -9246.4421 -7452.1733 299.2574 -16.3319 14.9055 29635.2117 -39.9557 30.4427
ENERGY: 900000 2.9014 20.7887 16.9770 0.0000 -10772.4479 1485.6931 0.0000 0.0000 1724.0891 -7521.9986 294.9519 -9246.0877 -7454.7263 298.6939 246.4581 317.0615 30252.9184 -36.5194 32.4779
ENERGY: 1200000 7.0676 16.7292 20.9934 0.0000 -10686.4663 1427.4242 0.0000 0.0000 1760.5441 -7453.7079 301.1885 -9214.2519 -7453.8905 298.7710 -54.4693 47.3394 30009.2442 -85.9167 -15.2868
ENERGY: 1500000 7.2193 19.7565 18.8935 0.0000 -10530.4292 1369.6667 0.0000 0.0000 1785.5804 -7329.3129 305.4717 -9114.8933 -7438.3748 299.8406 -636.6142 -570.2407 30762.0898 -125.4217 -61.1102
TCL: Running FEP window  12: Lambda1 0.5499999999999999 Lambda2 0.6    [dLambda 0.050000000000000044]
TCL: Setting parameter firsttimestep to 0
TCL: Setting parameter alchLambda to 0.5499999999999999
Info: NONBONDED TABLE R-SQUARED SPACING: 0.0625
Info: NONBONDED TABLE SIZE: 705 POINTS
TCL: Setting parameter alchLambda2 to 0.6
Info: NONBONDED TABLE R-SQUARED SPACING: 0.0625
Info: NONBONDED TABLE SIZE: 705 POINTS
TCL: Running for 1500000 steps
ETITLE: TS BOND ANGLE DIHED IMPRP ELECT VDW BOUNDARY MISC KINETIC TOTAL TEMP POTENTIAL TOTALAVG TEMPAVG PRESSURE GPRESSURE VOLUME PRESSAVG GPRESSAVG
ENERGY: 0 7.2193 19.7565 18.8935 0.0000 -10529.5145 1369.0057 0.0000 0.0000 1784.6918 -7329.9477 305.3196 -9114.6395 -7329.9477 305.3196 -639.8262 -558.6487 30762.0898 -639.8262 -558.6487
ENERGY: 300000 7.1348 17.2977 19.5197 0.0000 -10627.9463 1366.0075 0.0000 0.0000 1696.9430 -7521.0436 290.3079 -9217.9866 -7420.0716 299.9855 -148.0800 -133.3039 29845.1301 107.2570 148.9852
ENERGY: 600000 8.5612 24.2352 19.2721 0.0000 -10709.3425 1510.1223 0.0000 0.0000 1736.0269 -7411.1247 296.9942 -9147.1517 -7420.4324 301.0819 828.0616 889.6522 30050.6739 85.0927 134.4218
ENERGY: 900000 7.8137 20.4185 20.1212 0.0000 -10648.7297 1385.2842 0.0000 0.0000 1738.1041 -7476.9880 297.3496 -9215.0920 -7427.0641 301.1820 -205.9776 -171.2439 29973.7609 42.1947 87.8373
ENERGY: 1200000 7.6183 14.4841 20.7276 0.0000 -10592.1324 1424.8493 0.0000 0.0000 1710.6922 -7413.7608 292.6600 -9124.4530 -7421.3636 300.3732 23.0001 136.8262 30201.0514 100.4688 153.8676
ENERGY: 1500000 4.0353 22.9910 23.2962 0.0000 -10696.3180 1462.5221 0.0000 0.0000 1753.3733 -7430.1002 299.9618 -9183.4734 -7419.9609 300.8950 456.3323 520.8985 30133.6530 124.4956 182.5368
TCL: Running FEP window  13: Lambda1 0.6    Lambda2 0.65   [dLambda 0.050000000000000044]
TCL: Setting parameter firsttimestep to 0
TCL: Setting parameter alchLambda to 0.6
Info: NONBONDED TABLE R-SQUARED SPACING: 0.0625
Info: NONBONDED TABLE SIZE: 705 POINTS
TCL: Setting parameter alchLambda2 to 0.65
Info: NONBONDED TABLE R-SQUARED SPACING: 0.0625
Info: NONBONDED TABLE SIZE: 705 POINTS
TCL: Running for 1500000 steps
ETITLE: TS BOND ANGLE DIHED IMPRP ELECT VDW BOUNDARY MISC KINETIC TOTAL TEMP POTENTIAL TOTALAVG TEMPAVG PRESSURE GPRESSURE VOLUME PRESSAVG GPRESSAVG
ENERGY: 0 4.0353 22.9910 23.2962 0.0000 -10695.9567 1461.8791 0.0000 0.0000 1752.4499 -7431.3053 299.8038 -9183.7551 -7431.3053 299.8038 447.0515 531.4906 30133.6530 447.0515 531.4906
ENERGY: 300000 8.9344 20.2963 21.0690 0.0000 -10562.4313 1325.3604 0.0000 0.0000 1781.3013 -7405.4700 304.7396 -9186.7713 -7421.9000 298.4042 -742.1576 -691.0138 30144.6445 131.5189 173.7095
ENERGY: 600000 5.2386 14.2100 21.9467 0.0000 -10663.2470 1467.8247 0.0000 0.0000 1765.8459 -7388.1811 302.0955 -9154.0270 -7409.1746 299.1340 363.0944 371.7091 30205.9420 -202.4551 -168.5597
ENERGY: 900000 6.7017 19.9087 18.4547 0.0000 -10656.4013 1414.7228 0.0000 0.0000 1729.4694 -7467.1439 295.8724 -9196.6133 -7418.7101 298.0752 -431.1782 -384.1270 30605.9270 -208.3488 -169.9008
ENERGY: 1200000 9.5170 16.4198 20.8429 0.0000 -10611.9831 1399.2049 0.0000 0.0000 1778.1307 -7387.8678 304.1972 -9165.9985 -7424.2654 298.0522 -284.2032 -224.4520 30338.7060 -253.4685 -209.0312
ENERGY: 1500000 6.5099 17.9710 19.4586 0.0000 -10633.8588 1412.1451 0.0000 0.0000 1762.7541 -7415.0201 301.5666 -9177.7741 -7422.4950 298.8647 36.1903 123.4888 29860.5297 -242.5488 -196.6677
TCL: Running FEP window  14: Lambda1 0.65   Lambda2 0.7000000000000001 [dLambda 0.050000000000000044]
TCL: Setting parameter firsttimestep to 0
TCL: Setting parameter alchLambda to 0.65
Info: NONBONDED TABLE R-SQUARED SPACING: 0.0625
Info: NONBONDED TABLE SIZE: 705 POINTS
TCL: Setting parameter alchLambda2 to 0.7000000000000001
Info: NONBONDED TABLE R-SQUARED SPACING: 0.0625
Info: NONBONDED TABLE SIZE: 705 POINTS
TCL: Running for 1500000 steps
ETITLE: TS BOND ANGLE DIHED IMPRP ELECT VDW BOUNDARY MISC KINETIC TOTAL TEMP POTENTIAL TOTALAVG TEMPAVG PRESSURE GPRESSURE VOLUME PRESSAVG GPRESSAVG
ENERGY: 0 6.5099 17.9710 19.4586 0.0000 -10634.2759 1412.7724 0.0000 0.0000 1761.9164 -7415.6476 301.4233 -9177.5640 -7415.6476 301.4233 65.6023 146.7934 29860.5297 65.6023 146.7934
ENERGY: 300000 5.9943 17.2551 20.6077 0.0000 -10675.1880 1472.5597 0.0000 0.0000 1748.7497 -7410.0215 299.1708 -9158.7711 -7414.7560 299.0055 95.8223 168.8898 30396.3463 127.7368 212.3210
ENERGY: 600000 4.9528 18.8394 22.4959 0.0000 -10596.4621 1389.7377 0.0000 0.0000 1763.7139 -7396.7223 301.7308 -9160.4363 -7413.9333 300.1063 -321.7138 -266.9300 30400.2055 106.5382 187.4526
ENERGY: 900000 9.7811 13.8372 20.7055 0.0000 -10636.4940 1391.2623 0.0000 0.0000 1777.3108 -7423.5970 304.0569 -9200.9078 -7415.1699 301.1735 -238.7727 -116.3939 30258.4448 104.9682 181.9518
ENERGY: 1200000 12.4453 23.5255 20.0287 0.0000 -10747.9846 1429.1603 0.0000 0.0000 1749.9797 -7512.8452 299.3812 -9262.8248 -7427.0148 300.2707 -518.2543 -479.9421 30205.9777 -6.6948 60.9446
ENERGY: 1500000 4.9414 16.8474 21.4833 0.0000 -10632.7498 1417.8910 0.0000 0.0000 1795.5752 -7376.0115 307.1816 -9171.5867 -7431.8519 300.7459 22.2940 120.7000 30321.3435 58.7228 125.6476
TCL: Running FEP window  15: Lambda1 0.7000000000000001 Lambda2 0.7500000000000001 [dLambda 0.050000000000000044]
TCL: Setting parameter firsttimestep to 0
TCL: Setting parameter alchLambda to 0.7000000000000001
Info: NONBONDED TABLE R-SQUARED SPACING: 0.0625
Info: NONBONDED TABLE SIZE: 705 POINTS
TCL: Setting parameter alchLambda2 to 0.7500000000000001
Info: NONBONDED TABLE R-SQUARED SPACING: 0.0625
Info: NONBONDED TABLE SIZE: 705 POINTS
TCL: Running for 1500000 steps
ETITLE: TS BOND ANGLE DIHED IMPRP ELECT VDW BOUNDARY MISC KINETIC TOTAL TEMP POTENTIAL TOTALAVG TEMPAVG PRESSURE GPRESSURE VOLUME PRESSAVG GPRESSAVG
ENERGY: 0 4.9414 16.8474 21.4833 0.0000 -10633.7758 1417.7178 0.0000 0.0000 1794.7012 -7378.0846 307.0320 -9172.7858 -7378.0846 307.0320 57.7668 132.5715 30321.3435 57.7668 132.5715
ENERGY: 300000 5.7010 21.5075 22.0574 0.0000 -10605.1286 1424.4004 0.0000 0.0000 1737.8593 -7393.6029 297.3077 -9131.4622 -7413.4739 300.8938 76.4894 184.5711 30203.8043 53.3503 145.2480
ENERGY: 600000 4.3525 19.6105 22.5231 0.0000 -10639.5133 1391.4221 0.0000 0.0000 1780.6780 -7420.9272 304.6330 -9201.6051 -7430.8114 301.3633 -296.8681 -235.5471 30305.6753 105.8845 196.5230
ENERGY: 900000 9.1864 20.0803 25.8597 0.0000 -10734.7240 1433.5128 0.0000 0.0000 1773.6235 -7472.4613 303.4261 -9246.0848 -7435.1392 301.0861 513.3942 565.4885 29210.3162 124.1372 205.1772
ENERGY: 1200000 6.0475 16.0570 21.3359 0.0000 -10739.3026 1443.2251 0.0000 0.0000 1791.6158 -7461.0213 306.5042 -9252.6371 -7433.7891 302.3115 180.2717 311.2672 29766.4664 154.5627 237.6909
ENERGY: 1500000 7.0865 19.2829 18.1828 0.0000 -10637.8981 1422.0734 0.0000 0.0000 1824.4165 -7346.8560 312.1156 -9171.2725 -7434.4308 302.5077 -173.9411 -75.4557 30293.8513 70.6335 153.5716
TCL: Running FEP window  16: Lambda1 0.7500000000000001 Lambda2 0.8000000000000002 [dLambda 0.050000000000000044]
TCL: Setting parameter firsttimestep to 0
TCL: Setting parameter alchLambda to 0.7500000000000001
Info: NONBONDED TABLE R-SQUARED SPACING: 0.0625
Info: NONBONDED TABLE SIZE: 705 POINTS
TCL: Setting parameter alchLambda2 to 0.8000000000000002
Info: NONBONDED TABLE R-SQUARED SPACING: 0.0625
Info: NONBONDED TABLE SIZE: 705 POINTS
TCL: Running for 1500000 steps
ETITLE: TS BOND ANGLE DIHED IMPRP ELECT VDW BOUNDARY MISC KINETIC TOTAL TEMP POTENTIAL TOTALAVG TEMPAVG PRESSURE GPRESSURE VOLUME PRESSAVG GPRESSAVG
ENERGY: 0 7.0865 19.2829 18.1828 0.0000 -10640.2579 1423.4739 0.0000 0.0000 1823.5175 -7348.7143 311.9618 -9172.2318 -7348.7143 311.9618 -131.2173 -45.7626 30293.8513 -131.2173 -45.7626
ENERGY: 300000 5.4244 19.5951 23.1511 0.0000 -10749.2608 1429.5031 0.0000 0.0000 1725.8710 -7545.7162 295.2568 -9271.5872 -7421.9587 303.0075 140.9442 159.5938 29560.2464 -190.3496 -142.8400
ENERGY: 600000 5.9413 17.2451 22.6464 0.0000 -10618.5414 1392.3314 0.0000 0.0000 1796.3284 -7384.0488 307.3104 -9180.3771 -7405.7187 304.6474 -72.3371 -14.3571 30069.1248 -170.1391 -110.1213
ENERGY: 900000 5.6509 23.8841 19.5771 0.0000 -10604.3422 1387.1946 0.0000 0.0000 1725.8253 -7442.2103 295.2489 -9168.0355 -7421.7114 302.6593 -41.2132 -32.4277 29966.0456 -51.2936 8.1605
ENERGY: 1200000 5.3391 21.7201 17.2804 0.0000 -10633.8640 1423.0383 0.0000 0.0000 1808.6301 -7357.8561 309.4150 -9166.4862 -7400.7263 303.2735 149.3288 186.2600 30395.1511 -39.7860 14.1191
ENERGY: 1500000 7.5952 19.6488 18.2575 0.0000 -10597.6568 1443.5539 0.0000 0.0000 1720.2898 -7388.3116 294.3020 -9108.6014 -7397.9397 302.5245 357.5910 375.2058 30265.0784 -35.2152 13.7931
TCL: Running FEP window  17: Lambda1 0.8000000000000002 Lambda2 0.8500000000000002 [dLambda 0.050000000000000044]
TCL: Setting parameter firsttimestep to 0
TCL: Setting parameter alchLambda to 0.8000000000000002
Info: NONBONDED TABLE R-SQUARED SPACING: 0.0625
Info: NONBONDED TABLE SIZE: 705 POINTS
TCL: Setting parameter alchLambda2 to 0.8500000000000002
Info: NONBONDED TABLE R-SQUARED SPACING: 0.0625
Info: NONBONDED TABLE SIZE: 705 POINTS
TCL: Running for 1500000 steps
ETITLE: TS BOND ANGLE DIHED IMPRP ELECT VDW BOUNDARY MISC KINETIC TOTAL TEMP POTENTIAL TOTALAVG TEMPAVG PRESSURE GPRESSURE VOLUME PRESSAVG GPRESSAVG
ENERGY: 0 7.5952 19.6488 18.2575 0.0000 -10600.3866 1444.4601 0.0000 0.0000 1719.3813 -7391.0438 294.1465 -9110.4251 -7391.0438 294.1465 302.3501 396.4644 30265.0784 302.3501 396.4644
ENERGY: 300000 5.9439 21.5553 19.5868 0.0000 -10671.4304 1451.4917 0.0000 0.0000 1693.9747 -7478.8780 289.8000 -9172.8526 -7496.4563 293.0960 212.6094 210.8353 30219.9592 219.7361 259.7193
ENERGY: 600000 7.7799 19.5497 17.8042 0.0000 -10488.1463 1338.0862 0.0000 0.0000 1777.5124 -7327.4140 304.0914 -9104.9264 -7441.3196 297.8786 -723.4251 -609.2687 30870.7930 -40.7862 18.9890
ENERGY: 900000 5.4687 20.3234 17.4259 0.0000 -10625.5738 1349.4202 0.0000 0.0000 1746.8088 -7486.1268 298.8388 -9232.9356 -7440.6785 298.4983 -607.6140 -576.1232 30405.0743 -42.9564 8.7014
ENERGY: 1200000 13.0606 18.8339 19.4506 0.0000 -10669.2761 1424.3921 0.0000 0.0000 1723.2736 -7470.2653 294.8124 -9193.5389 -7448.4903 298.6121 -205.3639 -121.1208 30288.2047 -18.1627 34.2765
ENERGY: 1500000 6.8173 23.3300 18.0518 0.0000 -10693.9344 1514.9278 0.0000 0.0000 1726.8057 -7404.0017 295.4167 -9130.8074 -7445.8254 298.5314 1010.4741 1087.8978 30139.7642 77.3607 125.6229
TCL: Running FEP window  18: Lambda1 0.8500000000000002 Lambda2 0.9000000000000002 [dLambda 0.050000000000000044]
TCL: Setting parameter firsttimestep to 0
TCL: Setting parameter alchLambda to 0.8500000000000002
Info: NONBONDED TABLE R-SQUARED SPACING: 0.0625
Info: NONBONDED TABLE SIZE: 705 POINTS
TCL: Setting parameter alchLambda2 to 0.9000000000000002
Info: NONBONDED TABLE R-SQUARED SPACING: 0.0625
Info: NONBONDED TABLE SIZE: 705 POINTS
TCL: Running for 1500000 steps
ETITLE: TS BOND ANGLE DIHED IMPRP ELECT VDW BOUNDARY MISC KINETIC TOTAL TEMP POTENTIAL TOTALAVG TEMPAVG PRESSURE GPRESSURE VOLUME PRESSAVG GPRESSAVG
ENERGY: 0 6.8173 23.3300 18.0518 0.0000 -10696.5868 1515.0917 0.0000 0.0000 1725.9147 -7407.3812 295.2642 -9133.2959 -7407.3812 295.2642 1030.5656 1112.2873 30139.7642 1030.5656 1112.2873
ENERGY: 300000 6.9062 20.8065 20.2294 0.0000 -10584.4018 1319.4380 0.0000 0.0000 1765.0362 -7451.9856 301.9570 -9217.0218 -7452.3422 298.0987 -1206.5874 -1086.7453 30571.9994 -293.0608 -219.3715
ENERGY: 600000 7.6052 24.8068 20.6322 0.0000 -10587.9704 1443.2733 0.0000 0.0000 1732.6036 -7359.0493 296.4086 -9091.6529 -7439.8058 299.4874 331.9477 421.0723 30161.8284 -66.2143 21.1913
ENERGY: 900000 3.7140 16.8482 24.1395 0.0000 -10726.9503 1451.6604 0.0000 0.0000 1765.2366 -7465.3517 301.9913 -9230.5882 -7441.3631 299.1851 247.7846 231.6662 30102.6476 17.2311 78.3089
ENERGY: 1200000 4.8229 15.8887 18.3222 0.0000 -10599.2308 1328.6590 0.0000 0.0000 1774.8620 -7456.6759 303.6380 -9231.5379 -7436.2908 299.9591 -541.2949 -547.3464 29783.1118 -46.2513 10.9415
ENERGY: 1500000 8.5808 21.6496 18.7246 0.0000 -10604.9348 1408.3245 0.0000 0.0000 1764.4574 -7383.1979 301.8580 -9147.6553 -7431.5371 299.8135 383.9724 476.4653 30285.9072 -127.2615 -68.4177
TCL: Running FEP window  19: Lambda1 0.9000000000000002 Lambda2 0.9500000000000003 [dLambda 0.050000000000000044]
TCL: Setting parameter firsttimestep to 0
TCL: Setting parameter alchLambda to 0.9000000000000002
Info: NONBONDED TABLE R-SQUARED SPACING: 0.0625
Info: NONBONDED TABLE SIZE: 705 POINTS
TCL: Setting parameter alchLambda2 to 0.9500000000000003
Info: NONBONDED TABLE R-SQUARED SPACING: 0.0625
Info: NONBONDED TABLE SIZE: 705 POINTS
TCL: Running for 1500000 steps
ETITLE: TS BOND ANGLE DIHED IMPRP ELECT VDW BOUNDARY MISC KINETIC TOTAL TEMP POTENTIAL TOTALAVG TEMPAVG PRESSURE GPRESSURE VOLUME PRESSAVG GPRESSAVG
ENERGY: 0 8.5808 21.6496 18.7246 0.0000 -10606.9150 1409.2636 0.0000 0.0000 1763.5990 -7385.0974 301.7112 -9148.6964 -7385.0974 301.7112 421.2046 509.3430 30285.9072 421.2046 509.3430
ENERGY: 300000 4.4602 19.8226 17.7582 0.0000 -10608.3255 1378.6512 0.0000 0.0000 1722.8392 -7464.7941 294.7381 -9187.6333 -7435.7557 298.6473 -213.7372 -195.0872 30466.3637 -34.9976 54.0535
ENERGY: 600000 5.4888 19.1866 19.2661 0.0000 -10658.1445 1397.2296 0.0000 0.0000 1792.2392 -7424.7342 306.6108 -9216.9734 -7417.2950 300.8022 -484.7569 -431.4282 30657.6816 -129.8026 -77.2357
ENERGY: 900000 15.6590 18.8908 22.1546 0.0000 -10517.1399 1319.1483 0.0000 0.0000 1769.6209 -7371.6665 302.7414 -9141.2873 -7422.4788 300.9199 -843.6678 -782.5795 30615.3765 -315.7869 -260.9385
ENERGY: 1200000 5.3113 20.0064 17.9867 0.0000 -10546.3148 1375.8688 0.0000 0.0000 1747.1948 -7379.9468 298.9048 -9127.1416 -7427.4529 299.9717 40.5129 145.5114 30150.1908 -219.3363 -156.2918
ENERGY: 1500000 5.8191 20.9572 19.1998 0.0000 -10603.4709 1378.6733 0.0000 0.0000 1768.9532 -7409.8683 302.6271 -9178.8215 -7425.4321 300.0210 -96.1059 -72.7649 30165.9265 -239.2236 -186.4097
TCL: Running FEP window  20: Lambda1 0.9500000000000003 Lambda2 1.0    [dLambda 0.04999999999999971]
TCL: Setting parameter firsttimestep to 0
TCL: Setting parameter alchLambda to 0.9500000000000003
Info: NONBONDED TABLE R-SQUARED SPACING: 0.0625
Info: NONBONDED TABLE SIZE: 705 POINTS
TCL: Setting parameter alchLambda2 to 1.0
Info: NONBONDED TABLE R-SQUARED SPACING: 0.0625
Info: NONBONDED TABLE SIZE: 705 POINTS
TCL: Running for 1500000 steps
ETITLE: TS BOND ANGLE DIHED IMPRP ELECT VDW BOUNDARY MISC KINETIC TOTAL TEMP POTENTIAL TOTALAVG TEMPAVG PRESSURE GPRESSURE VOLUME PRESSAVG GPRESSAVG
ENERGY: 0 5.8191 20.9572 19.1998 0.0000 -10606.9188 1380.7541 0.0000 0.0000 1768.0653 -7412.1232 302.4752 -9180.1886 -7412.1232 302.4752 -111.6557 -31.5696 30165.9265 -111.6557 -31.5696
ENERGY: 300000 4.6027 19.3028 17.8377 0.0000 -10601.6457 1353.2142 0.0000 0.0000 1703.2965 -7503.3919 291.3948 -9206.6884 -7445.4150 296.9289 -834.8340 -711.1462 30904.0810 -325.8494 -233.6307
ENERGY: 600000 11.6288 18.2684 22.4935 0.0000 -10579.7701 1327.5789 0.0000 0.0000 1761.3105 -7438.4898 301.3197 -9199.8004 -7448.3130 297.9970 -1075.4240 -965.5466 30628.7266 -184.5345 -94.4557
ENERGY: 900000 7.4890 23.5895 20.2293 0.0000 -10720.5961 1384.7366 0.0000 0.0000 1754.7600 -7529.7916 300.1990 -9284.5516 -7459.2321 298.7027 -451.3072 -367.1626 30050.7147 -170.7425 -84.9728
ENERGY: 1200000 6.4664 22.4647 20.0846 0.0000 -10708.8092 1443.2498 0.0000 0.0000 1711.1294 -7505.4143 292.7348 -9216.5437 -7461.6994 297.7523 169.2764 162.9556 30525.6965 -88.6075 -13.7539
ENERGY: 1500000 4.4444 16.7209 20.1584 0.0000 -10685.8438 1454.2857 0.0000 0.0000 1739.3474 -7450.8872 297.5623 -9190.2345 -7457.3149 297.3747 445.1076 500.8272 29974.3056 -130.3948 -60.0718
TCL: Exiting due to exit command.
