Info: SIMULATION PARAMETERS:
Info: TIMESTEP               2
Info: NUMBER OF STEPS        0
Info: STEPS PER CYCLE        10
Info: PERIODIC CELL BASIS 1  29.8604 0 0
Info: PERIODIC CELL BASIS 2  0 32.7778 0
Info: PERIODIC CELL BASIS 3  0 0 31.0031
Info: PERIODIC CELL CENTER   0 0 0
Info: WRAPPING WATERS AROUND PERIODIC BOUNDARIES ON OUTPUT.
Info: WRAPPING ALL CLUSTERS AROUND PERIODIC BOUNDARIES ON OUTPUT.
Info: FIRST LDB TIMESTEP     50
Info: LAST LDB TIMESTEP     -1
Info: HOM BACKGROUND SCALING 1
Info: PME BACKGROUND SCALING 1
Info: MIN ATOMS PER PATCH    40
Info: EMPTY PATCH LOAD       40 ATOMS
Info: VELOCITY FILE          mobley_9617923_equil.vel
Info: CENTER OF MASS MOVING INITIALLY? NO
Info: DIELECTRIC             1
Info: EXCLUDE                SCALED ONE-FOUR
Info: 1-4 ELECTROSTATICS SCALED BY 0.833333
Info: MODIFIED 1-4 VDW PARAMETERS WILL BE USED
Info: DCD FILENAME           mobley_9617923_prod.dcd
Info: DCD FREQUENCY          100000
Info: DCD FIRST STEP         100000
Info: DCD FILE WILL CONTAIN UNIT CELL DATA
Info: XST FILENAME           mobley_9617923_prod.xst
Info: XST FREQUENCY          100000
Info: NO VELOCITY DCD OUTPUT
Info: NO FORCE DCD OUTPUT
Info: OUTPUT FILENAME        mobley_9617923_prod
Info: BINARY OUTPUT FILES WILL BE USED
Info: RESTART FILENAME       mobley_9617923_prod.restart
Info: RESTART FREQUENCY      100000
Info: BINARY RESTART FILES WILL BE USED
Info: CUTOFF                 9
Info: PAIRLIST DISTANCE      11
Info: PAIRLIST SHRINK RATE   0.01
Info: PAIRLIST GROW RATE     0.01
Info: PAIRLIST TRIGGER       0.3
Info: PAIRLISTS PER CYCLE    2
Info: PAIRLISTS ENABLED
Info: MARGIN                 2
Info: HYDROGEN GROUP CUTOFF  2.5
Info: PATCH DIMENSION        15.5
Info: ENERGY OUTPUT STEPS    100000
Info: ENERGY EVALUATION STEPS    100000
Info: OUTPUT ENERGY PRECISION 4
Info: CROSSTERM ENERGY INCLUDED IN DIHEDRAL
Info: TIMING OUTPUT STEPS    1000000
Info: PRESSURE OUTPUT STEPS  100000
Info: ALCHEMICAL FEP ON
Info: FEP CURRENT LAMBDA VALUE     0
Info: FEP COMPARISON LAMBDA VALUE  0.05
Info: FEP INTRA-ALCHEMICAL NON-BONDED INTERACTIONS WILL BE RETAINED
Info: FEP INTRA-ALCHEMICAL BONDED INTERACTIONS WILL BE RETAINED
Info: FEP VDW SHIFTING COEFFICIENT 5
Info: FEP ELEC. ACTIVE FOR ANNIHILATED PARTICLES BETWEEN LAMBDA = 0 AND LAMBDA = 0.5
Info: FEP ELEC. ACTIVE FOR EXNIHILATED PARTICLES BETWEEN LAMBDA = 0.5 AND LAMBDA = 1
Info: FEP VDW ACTIVE FOR ANNIHILATED PARTICLES BETWEEN LAMBDA = 0 AND LAMBDA = 1
Info: FEP VDW ACTIVE FOR EXNIHILATED PARTICLES BETWEEN LAMBDA = 0 AND LAMBDA = 1
Info: FEP BOND ACTIVE FOR ANNIHILATED PARTICLES BETWEEN LAMBDA = 1 AND LAMBDA = 1
Info: FEP BOND ACTIVE FOR EXNIHILATED PARTICLES BETWEEN LAMBDA = 0 AND LAMBDA = 0
Info: LANGEVIN DYNAMICS ACTIVE
Info: LANGEVIN TEMPERATURE   300
Info: LANGEVIN USING BBK INTEGRATOR
Info: LANGEVIN DAMPING COEFFICIENT IS 1 INVERSE PS
Info: LANGEVIN DYNAMICS APPLIED TO HYDROGENS
Info: LANGEVIN PISTON PRESSURE CONTROL ACTIVE
Info:        TARGET PRESSURE IS 1.01325 BAR
Info:     OSCILLATION PERIOD IS 50 FS
Info:             DECAY TIME IS 25 FS
Info:     PISTON TEMPERATURE IS 300 K
Info:       PRESSURE CONTROL IS GROUP-BASED
Info:    INITIAL STRAIN RATE IS 0.000139561 0.000139561 0.000139561
Info:       CELL FLUCTUATION IS ISOTROPIC
Info: PARTICLE MESH EWALD (PME) ACTIVE
Info: PME TOLERANCE               1e-06
Info: PME EWALD COEFFICIENT       0.348832
Info: PME INTERPOLATION ORDER     4
Info: PME GRID DIMENSIONS         32 36 32
Info: PME MAXIMUM GRID SPACING    1
Info: PME CALCULATION WILL BE PERFORMED ON GPU
Info: FULL ELECTROSTATIC EVALUATION FREQUENCY      2
Info: USING VERLET I (r-RESPA) MTS SCHEME.
Info: C1 SPLITTING OF LONG RANGE ELECTROSTATICS
Info: PLACING ATOMS IN PATCHES BY HYDROGEN GROUPS
Info: RIGID BONDS TO HYDROGEN : ALL
Info:         ERROR TOLERANCE : 1e-08
Info:          MAX ITERATIONS : 100
Info: RIGID WATER USING SETTLE ALGORITHM
Info: RANDOM NUMBER SEED     1744089338
Info: USE HYDROGEN BONDS?    NO
Info: Using AMBER format force field!
Info: AMBER PARM FILE        mobley_9617923.prmtop
Info: COORDINATE PDB         mobley_9617923.pdb
Info: Exclusions will be read from PARM file!
Info: SCNB (VDW SCALING)     2
Info: USING ARITHMETIC MEAN TO COMBINE L-J SIGMA PARAMETERS
Info: BINARY COORDINATES     mobley_9617923_equil.coor
Info: SUMMARY OF PARAMETERS:
Info: 6 BONDS
Info: 7 ANGLES
Info:   7 HARMONIC
Info:   0 COSINE-BASED
Info: 11 DIHEDRAL
Info: 0 IMPROPER
Info: 0 CROSSTERM
Info: 0 VDW
Info: 21 VDW_PAIRS
Info: 0 NBTHOLE_PAIRS
Info: To read alchdata from file: mobley_9617923.pdb
Info: To read alchflag data from column: 5
Info: STRUCTURE SUMMARY:
Info: 2944 ATOMS
Info: 2943 BONDS
Info: 57 ANGLES
Info: 96 DIHEDRALS
Info: 0 IMPROPERS
Info: 0 CROSSTERMS
Info: 3075 EXCLUSIONS
Info: 2933 RIGID BONDS
Info: ALCH: 0 ATOMS TO DISAPPEAR IN FINAL STATE
Info: ALCH: 31 ATOMS TO APPEAR IN FINAL STATE
Info: 5899 DEGREES OF FREEDOM
Info: 982 HYDROGEN GROUPS
Info: 4 ATOMS IN LARGEST HYDROGEN GROUP
Info: 982 MIGRATION GROUPS
Info: 4 ATOMS IN LARGEST MIGRATION GROUP
Info: TOTAL MASS = 17649.8 amu
Info: TOTAL CHARGE = 0.0002 e
Info: MASS DENSITY = 0.965871 g/cm^3
Info: ATOM DENSITY = 0.0970193 atoms/A^3
Info: ADDED 0 IMPLICIT EXCLUSIONS
Info: NONBONDED TABLE R-SQUARED SPACING: 0.0625
Info: NONBONDED TABLE SIZE: 705 POINTS
Info: REMOVING COM VELOCITY -0.103308 0.0400607 0.0898299
Info: Use 3D box decompostion in PME FFT.
Info: Updated CUDA force table with 4096 elements.
Info: Updated CUDA LJ table with 6 x 6 elements.
Info: Found 34 unique exclusion lists needing 140 bytes
TCL: Running for 1500000 steps
ETITLE: TS BOND ANGLE DIHED IMPRP ELECT VDW BOUNDARY MISC KINETIC TOTAL TEMP POTENTIAL TOTALAVG TEMPAVG PRESSURE GPRESSURE VOLUME PRESSAVG GPRESSAVG
ENERGY: 0 2.8895 24.8793 7.7538 0.0000 -10543.5479 1397.0317 0.0000 0.0000 1770.1125 -7340.8812 302.0041 -9110.9937 -7340.8812 302.0041 -213.0887 -135.2515 30344.4926 -213.0887 -135.2515
ENERGY: 300000 3.3836 10.8593 8.3864 0.0000 -10600.6629 1456.7183 0.0000 0.0000 1745.6062 -7375.7090 297.8230 -9121.3152 -7371.0146 302.4603 -30.5734 41.9805 30323.1680 296.4192 349.9736
ENERGY: 600000 3.9392 14.0310 7.2199 0.0000 -10680.0451 1435.6045 0.0000 0.0000 1779.0587 -7440.1919 303.5304 -9219.2506 -7388.7140 302.4235 -260.8256 -176.1662 30075.0326 211.9608 270.2503
ENERGY: 900000 3.3331 13.5670 9.0145 0.0000 -10592.3738 1405.3713 0.0000 0.0000 1767.6077 -7393.4801 301.5768 -9161.0879 -7398.8810 301.3340 -168.9719 -143.8016 30163.4778 70.1625 123.2503
ENERGY: 1200000 2.3490 13.3915 7.6472 0.0000 -10603.1048 1430.5145 0.0000 0.0000 1748.3704 -7400.8321 298.2946 -9149.2025 -7404.5891 300.4742 -0.5194 124.7441 30052.2658 104.1023 165.1919
ENERGY: 1500000 5.1110 13.9792 8.8121 0.0000 -10609.2378 1497.6226 0.0000 0.0000 1759.5184 -7324.1945 300.1966 -9083.7129 -7400.9930 300.7674 771.6686 858.3362 30070.1287 190.2622 256.0401
TCL: Running FEP window   2: Lambda1 0.05   Lambda2 0.1    [dLambda 0.05  ]
TCL: Setting parameter firsttimestep to 0
TCL: Setting parameter alchLambda to 0.05
Info: NONBONDED TABLE R-SQUARED SPACING: 0.0625
Info: NONBONDED TABLE SIZE: 705 POINTS
TCL: Setting parameter alchLambda2 to 0.1
Info: NONBONDED TABLE R-SQUARED SPACING: 0.0625
Info: NONBONDED TABLE SIZE: 705 POINTS
TCL: Running for 1500000 steps
ETITLE: TS BOND ANGLE DIHED IMPRP ELECT VDW BOUNDARY MISC KINETIC TOTAL TEMP POTENTIAL TOTALAVG TEMPAVG PRESSURE GPRESSURE VOLUME PRESSAVG GPRESSAVG
ENERGY: 0 5.1110 13.9792 8.8121 0.0000 -10609.2374 1499.3741 0.0000 0.0000 1758.6192 -7323.3418 300.0432 -9081.9610 -7323.3418 300.0432 792.8256 865.5875 30070.1287 792.8256 865.5875
ENERGY: 300000 2.2058 10.7940 8.0067 0.0000 -10623.4205 1455.4649 0.0000 0.0000 1747.7378 -7399.2114 298.1867 -9146.9492 -7403.9999 300.2811 -67.8205 -8.5345 30579.1464 512.8585 573.7157
ENERGY: 600000 4.1939 9.7495 9.7297 0.0000 -10681.3418 1469.6370 0.0000 0.0000 1806.6357 -7381.3960 308.2354 -9188.0318 -7399.9052 301.1712 226.7488 335.6475 29751.8816 124.7957 192.8840
ENERGY: 900000 3.5865 14.7159 9.3081 0.0000 -10540.8985 1401.3364 0.0000 0.0000 1747.9417 -7364.0099 298.2215 -9111.9516 -7407.9475 300.3559 -109.6461 -49.6605 30247.7262 207.1665 271.3489
ENERGY: 1200000 5.3512 15.2721 9.3637 0.0000 -10635.4810 1427.8290 0.0000 0.0000 1728.5438 -7449.1212 294.9120 -9177.6650 -7422.4121 299.2713 -273.6987 -235.4954 30163.7647 205.0097 265.9196
ENERGY: 1500000 4.7228 14.0653 7.7288 0.0000 -10566.2994 1388.8592 0.0000 0.0000 1715.7878 -7435.1355 292.7356 -9150.9233 -7425.2267 298.6261 -420.7802 -373.6310 30100.2544 121.6530 180.8662
TCL: Running FEP window   3: Lambda1 0.1    Lambda2 0.15000000000000002 [dLambda 0.05000000000000002]
TCL: Setting parameter firsttimestep to 0
TCL: Setting parameter alchLambda to 0.1
Info: NONBONDED TABLE R-SQUARED SPACING: 0.0625
Info: NONBONDED TABLE SIZE: 705 POINTS
TCL: Setting parameter alchLambda2 to 0.15000000000000002
Info: NONBONDED TABLE R-SQUARED SPACING: 0.0625
Info: NONBONDED TABLE SIZE: 705 POINTS
TCL: Running for 1500000 steps
ETITLE: TS BOND ANGLE DIHED IMPRP ELECT VDW BOUNDARY MISC KINETIC TOTAL TEMP POTENTIAL TOTALAVG TEMPAVG PRESSURE GPRESSURE VOLUME PRESSAVG GPRESSAVG
ENERGY: 0 4.7228 14.0653 7.7288 0.0000 -10566.3005 1391.5179 0.0000 0.0000 1714.9208 -7433.3449 292.5877 -9148.2656 -7433.3449 292.5877 -465.6584 -361.9827 30100.2544 -465.6584 -361.9827
ENERGY: 300000 1.5822 13.1663 9.3872 0.0000 -10588.6465 1363.5626 0.0000 0.0000 1762.3822 -7438.5660 300.6852 -9200.9482 -7459.5902 296.9158 -538.8841 -530.1781 29947.1013 -354.9449 -303.6703
ENERGY: 600000 2.6022 14.0045 9.1231 0.0000 -10607.9124 1387.0232 0.0000 0.0000 1757.5199 -7437.6395 299.8557 -9195.1594 -7441.7988 297.6621 -436.1266 -385.9461 30012.3339 -258.3857 -211.1634
ENERGY: 900000 1.5436 16.6938 10.0501 0.0000 -10686.5812 1488.2735 0.0000 0.0000 1752.5205 -7417.4997 299.0027 -9170.0202 -7430.8127 298.5247 293.7426 342.6159 30213.2068 -197.2038 -152.3654
ENERGY: 1200000 7.0860 16.9766 9.4708 0.0000 -10490.2645 1374.0043 0.0000 0.0000 1768.6008 -7314.1259 301.7462 -9082.7267 -7422.3066 298.3177 -398.6026 -294.0047 29938.8169 -158.9585 -107.5655
ENERGY: 1500000 1.6002 12.0135 7.4608 0.0000 -10569.7063 1416.7780 0.0000 0.0000 1749.2463 -7382.6076 298.4441 -9131.8539 -7417.2199 298.8214 -159.5790 -122.0594 30474.2428 -82.0790 -33.1316
TCL: Running FEP window   4: Lambda1 0.15000000000000002 Lambda2 0.2    [dLambda 0.04999999999999999]
TCL: Setting parameter firsttimestep to 0
TCL: Setting parameter alchLambda to 0.15000000000000002
Info: NONBONDED TABLE R-SQUARED SPACING: 0.0625
Info: NONBONDED TABLE SIZE: 705 POINTS
TCL: Setting parameter alchLambda2 to 0.2
Info: NONBONDED TABLE R-SQUARED SPACING: 0.0625
Info: NONBONDED TABLE SIZE: 705 POINTS
TCL: Running for 1500000 steps
ETITLE: TS BOND ANGLE DIHED IMPRP ELECT VDW BOUNDARY MISC KINETIC TOTAL TEMP POTENTIAL TOTALAVG TEMPAVG PRESSURE GPRESSURE VOLUME PRESSAVG GPRESSAVG
ENERGY: 0 1.6002 12.0135 7.4608 0.0000 -10569.7041 1417.4752 0.0000 0.0000 1748.3772 -7382.7773 298.2958 -9131.1545 -7382.7773 298.2958 -189.6524 -116.4055 30474.2428 -189.6524 -116.4055
ENERGY: 300000 3.9096 12.1618 8.4609 0.0000 -10567.5577 1451.4998 0.0000 0.0000 1708.5988 -7382.9268 291.5091 -9091.5256 -7396.7851 295.3333 175.4598 305.9866 30221.4128 -95.0112 -6.0556
ENERGY: 600000 1.8540 11.1107 8.3086 0.0000 -10816.4976 1524.0469 0.0000 0.0000 1743.6055 -7527.5719 297.4817 -9271.1774 -7411.1365 298.5940 538.0117 551.0613 29881.3435 202.0251 266.5087
ENERGY: 900000 3.2519 14.7314 7.5842 0.0000 -10676.8740 1436.9284 0.0000 0.0000 1771.8691 -7442.5091 302.3038 -9214.3782 -7413.5080 298.6997 98.4956 189.3699 29466.0914 166.3501 226.7958
ENERGY: 1200000 4.9768 13.2200 8.9065 0.0000 -10613.3041 1486.4642 0.0000 0.0000 1738.1377 -7361.5987 296.5488 -9099.7365 -7417.8178 298.2458 360.9223 437.7198 30152.6959 146.6787 202.7926
ENERGY: 1500000 2.8465 16.7020 7.2802 0.0000 -10653.4047 1466.8961 0.0000 0.0000 1751.2339 -7408.4459 298.7832 -9159.6799 -7418.5557 298.9176 432.0856 545.1083 29729.0019 188.1374 246.9793
TCL: Running FEP window   5: Lambda1 0.2    Lambda2 0.25   [dLambda 0.04999999999999999]
TCL: Setting parameter firsttimestep to 0
TCL: Setting parameter alchLambda to 0.2
Info: NONBONDED TABLE R-SQUARED SPACING: 0.0625
Info: NONBONDED TABLE SIZE: 705 POINTS
TCL: Setting parameter alchLambda2 to 0.25
Info: NONBONDED TABLE R-SQUARED SPACING: 0.0625
Info: NONBONDED TABLE SIZE: 705 POINTS
TCL: Running for 1500000 steps
ETITLE: TS BOND ANGLE DIHED IMPRP ELECT VDW BOUNDARY MISC KINETIC TOTAL TEMP POTENTIAL TOTALAVG TEMPAVG PRESSURE GPRESSURE VOLUME PRESSAVG GPRESSAVG
ENERGY: 0 2.8465 16.7020 7.2802 0.0000 -10653.4044 1468.7188 0.0000 0.0000 1750.3847 -7407.4722 298.6383 -9157.8569 -7407.4722 298.6383 467.8570 562.1265 29729.0019 467.8570 562.1265
ENERGY: 300000 1.1568 16.3965 12.3323 0.0000 -10573.3508 1418.2636 0.0000 0.0000 1806.6512 -7318.5504 308.2381 -9125.2016 -7425.7943 298.9631 -46.8670 18.3512 30191.1669 15.8067 57.3128
ENERGY: 600000 3.8591 10.5324 7.5494 0.0000 -10563.7720 1411.9654 0.0000 0.0000 1801.7979 -7328.0677 307.4100 -9129.8656 -7408.2802 300.6968 96.8210 43.2926 29995.8362 47.7734 78.5143
ENERGY: 900000 3.3099 14.2914 7.6235 0.0000 -10620.1804 1447.7220 0.0000 0.0000 1752.4126 -7394.8210 298.9843 -9147.2335 -7418.8511 300.5028 21.4786 37.1098 30341.2356 43.4074 60.2367
ENERGY: 1200000 5.6647 12.8247 8.1981 0.0000 -10785.2176 1517.9087 0.0000 0.0000 1717.4606 -7523.1607 293.0210 -9240.6213 -7416.0250 300.1150 581.0896 617.8082 29711.5413 45.3978 78.4996
ENERGY: 1500000 3.0205 15.1508 9.0599 0.0000 -10642.0427 1416.8159 0.0000 0.0000 1734.0400 -7463.9555 295.8497 -9197.9955 -7416.2259 300.1668 -483.8279 -380.0412 30293.5372 32.8889 72.0133
TCL: Running FEP window   6: Lambda1 0.25   Lambda2 0.3    [dLambda 0.04999999999999999]
TCL: Setting parameter firsttimestep to 0
TCL: Setting parameter alchLambda to 0.25
Info: NONBONDED TABLE R-SQUARED SPACING: 0.0625
Info: NONBONDED TABLE SIZE: 705 POINTS
TCL: Setting parameter alchLambda2 to 0.3
Info: NONBONDED TABLE R-SQUARED SPACING: 0.0625
Info: NONBONDED TABLE SIZE: 705 POINTS
TCL: Running for 1500000 steps
ETITLE: TS BOND ANGLE DIHED IMPRP ELECT VDW BOUNDARY MISC KINETIC TOTAL TEMP POTENTIAL TOTALAVG TEMPAVG PRESSURE GPRESSURE VOLUME PRESSAVG GPRESSAVG
ENERGY: 0 3.0205 15.1508 9.0599 0.0000 -10642.0426 1417.6273 0.0000 0.0000 1733.1651 -7464.0190 295.7004 -9197.1841 -7464.0190 295.7004 -449.0183 -369.1516 30293.5372 -449.0183 -369.1516
ENERGY: 300000 4.2539 11.7807 6.6319 0.0000 -10511.5242 1418.5434 0.0000 0.0000 1804.1304 -7266.1839 307.8080 -9070.3143 -7378.3982 300.4511 395.6792 478.8286 29586.2781 213.4340 258.7925
ENERGY: 600000 4.9265 11.9546 8.7559 0.0000 -10490.5402 1393.8160 0.0000 0.0000 1783.4283 -7287.6588 304.2760 -9071.0871 -7341.9320 302.7520 -117.5004 -126.2175 30363.1898 -75.7278 -28.7671
ENERGY: 900000 2.9322 18.1274 11.9692 0.0000 -10604.4866 1439.3805 0.0000 0.0000 1751.6119 -7380.4653 298.8477 -9132.0773 -7359.2873 301.2865 352.0208 436.3574 29662.0820 -68.3501 -26.4356
ENERGY: 1200000 5.1273 15.3945 12.1643 0.0000 -10375.1704 1305.3170 0.0000 0.0000 1732.8757 -7304.2917 295.6510 -9037.1673 -7370.7716 300.7482 -550.8647 -494.3239 29730.6472 -112.7041 -74.6191
ENERGY: 1500000 1.3128 19.7477 7.4381 0.0000 -10561.8619 1410.2733 0.0000 0.0000 1732.6685 -7390.4215 295.6157 -9123.0901 -7381.4268 301.1109 85.1355 136.5169 30167.7511 -49.6804 -12.0830
TCL: Running FEP window   7: Lambda1 0.3    Lambda2 0.35   [dLambda 0.04999999999999999]
TCL: Setting parameter firsttimestep to 0
TCL: Setting parameter alchLambda to 0.3
Info: NONBONDED TABLE R-SQUARED SPACING: 0.0625
Info: NONBONDED TABLE SIZE: 705 POINTS
TCL: Setting parameter alchLambda2 to 0.35
Info: NONBONDED TABLE R-SQUARED SPACING: 0.0625
Info: NONBONDED TABLE SIZE: 705 POINTS
TCL: Running for 1500000 steps
ETITLE: TS BOND ANGLE DIHED IMPRP ELECT VDW BOUNDARY MISC KINETIC TOTAL TEMP POTENTIAL TOTALAVG TEMPAVG PRESSURE GPRESSURE VOLUME PRESSAVG GPRESSAVG
ENERGY: 0 1.3128 19.7477 7.4381 0.0000 -10561.8614 1410.3442 0.0000 0.0000 1731.8036 -7391.2150 295.4681 -9123.0186 -7391.2150 295.4681 78.8200 144.0458 30167.7511 78.8200 144.0458
ENERGY: 300000 4.7203 11.8952 9.1303 0.0000 -10525.0685 1401.4539 0.0000 0.0000 1754.5826 -7343.2862 299.3545 -9097.8688 -7385.2792 298.9431 -236.8837 -191.2254 30619.0097 84.6585 136.6578
ENERGY: 600000 4.2021 14.8949 9.6579 0.0000 -10775.9512 1546.7370 0.0000 0.0000 1749.4558 -7451.0035 298.4798 -9200.4593 -7378.2175 299.6692 620.2622 723.8788 29932.6387 304.1795 363.9071
ENERGY: 900000 4.0588 14.5608 9.0917 0.0000 -10455.0741 1338.3709 0.0000 0.0000 1769.9075 -7319.0843 301.9691 -9088.9918 -7374.7829 299.1201 -577.6767 -446.9855 30299.2725 124.7496 187.2898
ENERGY: 1200000 2.5912 9.8918 8.5889 0.0000 -10504.3587 1420.9905 0.0000 0.0000 1741.1088 -7321.1875 297.0557 -9062.2963 -7381.8737 298.2612 172.7378 295.8313 30331.3588 78.8951 146.9262
ENERGY: 1500000 4.0068 14.1996 10.4115 0.0000 -10653.4659 1436.8979 0.0000 0.0000 1787.4827 -7400.4674 304.9677 -9187.9500 -7383.0260 299.0397 191.9616 224.7338 29670.7814 62.0583 122.5124
TCL: Running FEP window   8: Lambda1 0.35   Lambda2 0.39999999999999997 [dLambda 0.04999999999999999]
TCL: Setting parameter firsttimestep to 0
TCL: Setting parameter alchLambda to 0.35
Info: NONBONDED TABLE R-SQUARED SPACING: 0.0625
Info: NONBONDED TABLE SIZE: 705 POINTS
TCL: Setting parameter alchLambda2 to 0.39999999999999997
Info: NONBONDED TABLE R-SQUARED SPACING: 0.0625
Info: NONBONDED TABLE SIZE: 705 POINTS
TCL: Running for 1500000 steps
ETITLE: TS BOND ANGLE DIHED IMPRP ELECT VDW BOUNDARY MISC KINETIC TOTAL TEMP POTENTIAL TOTALAVG TEMPAVG PRESSURE GPRESSURE VOLUME PRESSAVG GPRESSAVG
ENERGY: 0 4.0068 14.1996 10.4115 0.0000 -10653.4650 1436.5924 0.0000 0.0000 1786.6087 -7401.6460 304.8186 -9188.2547 -7401.6460 304.8186 142.3986 231.4450 29670.7814 142.3986 231.4450
ENERGY: 300000 3.9454 13.0413 9.1234 0.0000 -10682.8484 1503.0359 0.0000 0.0000 1772.6644 -7381.0381 302.4395 -9153.7024 -7407.7881 303.0509 431.6381 509.3314 30182.8220 210.8358 270.3016
ENERGY: 600000 4.5159 14.9977 9.4612 0.0000 -10619.8425 1379.5812 0.0000 0.0000 1805.8821 -7405.4044 308.1069 -9211.2865 -7412.4249 301.9016 -603.8351 -548.5809 30070.9215 -13.8502 51.7095
ENERGY: 900000 3.3115 13.0382 8.7470 0.0000 -10708.0518 1461.9172 0.0000 0.0000 1791.4055 -7429.6325 305.6370 -9221.0379 -7398.6548 301.9453 117.1774 147.0291 29975.2536 -24.6914 36.4296
ENERGY: 1200000 3.3697 16.0635 8.0515 0.0000 -10553.1782 1386.4306 0.0000 0.0000 1729.8695 -7409.3935 295.1381 -9139.2630 -7404.3134 301.8170 -228.2248 -118.4338 30029.7974 -59.3660 10.9881
ENERGY: 1500000 3.5365 17.3630 8.6368 0.0000 -10514.4485 1400.9206 0.0000 0.0000 1771.7034 -7312.2881 302.2755 -9083.9915 -7402.8807 301.5879 -38.1141 22.5588 30606.4563 -69.9463 -9.9084
TCL: Running FEP window   9: Lambda1 0.39999999999999997 Lambda2 0.44999999999999996 [dLambda 0.04999999999999999]
TCL: Setting parameter firsttimestep to 0
TCL: Setting parameter alchLambda to 0.39999999999999997
Info: NONBONDED TABLE R-SQUARED SPACING: 0.0625
Info: NONBONDED TABLE SIZE: 705 POINTS
TCL: Setting parameter alchLambda2 to 0.44999999999999996
Info: NONBONDED TABLE R-SQUARED SPACING: 0.0625
Info: NONBONDED TABLE SIZE: 705 POINTS
TCL: Running for 1500000 steps
ETITLE: TS BOND ANGLE DIHED IMPRP ELECT VDW BOUNDARY MISC KINETIC TOTAL TEMP POTENTIAL TOTALAVG TEMPAVG PRESSURE GPRESSURE VOLUME PRESSAVG GPRESSAVG
ENERGY: 0 3.5365 17.3630 8.6368 0.0000 -10514.4501 1401.4713 0.0000 0.0000 1770.8312 -7312.6114 302.1267 -9083.4425 -7312.6114 302.1267 -35.5155 40.0464 30606.4563 -35.5155 40.0464
ENERGY: 300000 2.1226 8.7351 8.4582 0.0000 -10680.7413 1484.2012 0.0000 0.0000 1713.4939 -7463.7302 292.3442 -9177.2241 -7404.6055 300.0146 403.4957 471.4372 30224.3522 91.5781 163.8706
ENERGY: 600000 7.6751 14.3169 6.6064 0.0000 -10513.5699 1360.7351 0.0000 0.0000 1741.6856 -7382.5507 297.1541 -9124.2363 -7411.3462 299.7802 -808.8684 -696.8078 30719.9719 -119.4756 -49.8146
ENERGY: 900000 4.3523 14.9675 8.6730 0.0000 -10624.9606 1447.6611 0.0000 0.0000 1750.9498 -7398.3568 298.7347 -9149.3066 -7417.9416 299.5005 -131.5059 -113.0326 30657.3083 -5.8106 56.7626
ENERGY: 1200000 2.4529 11.7637 6.8475 0.0000 -10676.0260 1458.5587 0.0000 0.0000 1777.1331 -7419.2701 303.2019 -9196.4031 -7417.7300 299.8958 -80.9220 -46.4711 30612.2132 31.1739 87.9292
ENERGY: 1500000 3.2349 16.5053 7.2478 0.0000 -10769.9053 1500.6498 0.0000 0.0000 1769.2870 -7472.9804 301.8633 -9242.2674 -7416.6347 300.0650 367.7542 389.3523 30072.6179 5.9761 59.5249
TCL: Running FEP window  10: Lambda1 0.44999999999999996 Lambda2 0.49999999999999994 [dLambda 0.04999999999999999]
TCL: Setting parameter firsttimestep to 0
TCL: Setting parameter alchLambda to 0.44999999999999996
Info: NONBONDED TABLE R-SQUARED SPACING: 0.0625
Info: NONBONDED TABLE SIZE: 705 POINTS
TCL: Setting parameter alchLambda2 to 0.49999999999999994
Info: NONBONDED TABLE R-SQUARED SPACING: 0.0625
Info: NONBONDED TABLE SIZE: 705 POINTS
TCL: Running for 1500000 steps
ETITLE: TS BOND ANGLE DIHED IMPRP ELECT VDW BOUNDARY MISC KINETIC TOTAL TEMP POTENTIAL TOTALAVG TEMPAVG PRESSURE GPRESSURE VOLUME PRESSAVG GPRESSAVG
ENERGY: 0 3.2349 16.5053 7.2478 0.0000 -10769.9049 1501.2763 0.0000 0.0000 1768.4475 -7473.1931 301.7200 -9241.6406 -7473.1931 301.7200 328.0487 403.1471 30072.6179 328.0487 403.1471
ENERGY: 300000 2.4177 11.8282 8.2006 0.0000 -10732.2216 1480.0753 0.0000 0.0000 1719.8405 -7509.8594 293.4271 -9229.6999 -7421.4336 300.5456 248.2745 270.0907 30227.6485 249.3251 306.4916
ENERGY: 600000 2.4477 18.9904 10.2306 0.0000 -10648.2618 1465.2922 0.0000 0.0000 1836.2864 -7315.0145 313.2942 -9151.3009 -7393.6272 301.5231 356.1493 385.9631 30210.4422 35.0175 95.3672
ENERGY: 900000 2.2046 19.4929 7.6216 0.0000 -10577.8184 1389.0960 0.0000 0.0000 1793.9109 -7365.4924 306.0644 -9159.4033 -7399.2544 301.7275 -173.3736 -152.1032 30084.1843 7.5942 62.1217
ENERGY: 1200000 1.6011 15.2352 6.7480 0.0000 -10566.0025 1388.0418 0.0000 0.0000 1793.4405 -7360.9359 305.9842 -9154.3764 -7399.8547 302.2024 -112.7430 -20.9804 29866.3630 90.8396 144.6095
ENERGY: 1500000 2.0293 11.4920 7.6635 0.0000 -10772.0806 1525.4103 0.0000 0.0000 1748.4137 -7477.0717 298.3020 -9225.4854 -7411.0647 301.5119 795.6922 895.6542 29674.1902 115.1311 171.3137
TCL: Running FEP window  11: Lambda1 0.49999999999999994 Lambda2 0.5499999999999999 [dLambda 0.04999999999999999]
TCL: Setting parameter firsttimestep to 0
TCL: Setting parameter alchLambda to 0.49999999999999994
Info: NONBONDED TABLE R-SQUARED SPACING: 0.0625
Info: NONBONDED TABLE SIZE: 705 POINTS
TCL: Setting parameter alchLambda2 to 0.5499999999999999
Info: NONBONDED TABLE R-SQUARED SPACING: 0.0625
Info: NONBONDED TABLE SIZE: 705 POINTS
TCL: Running for 1500000 steps
ETITLE: TS BOND ANGLE DIHED IMPRP ELECT VDW BOUNDARY MISC KINETIC TOTAL TEMP POTENTIAL TOTALAVG TEMPAVG PRESSURE GPRESSURE VOLUME PRESSAVG GPRESSAVG
ENERGY: 0 2.0293 11.4920 7.6635 0.0000 -10772.0821 1525.0766 0.0000 0.0000 1747.5528 -7478.2678 298.1551 -9225.8206 -7478.2678 298.1551 809.7226 908.0682 29674.1902 809.7226 908.0682
ENERGY: 300000 2.3009 11.3063 7.4328 0.0000 -10582.8874 1376.0830 0.0000 0.0000 1710.7466 -7475.0177 291.8755 -9185.7643 -7413.5733 300.5422 -534.6724 -547.9334 30508.8107 260.3627 323.2820
ENERGY: 600000 3.0145 16.8776 10.0033 0.0000 -10629.8355 1435.9484 0.0000 0.0000 1714.2127 -7449.7790 292.4669 -9163.9917 -7412.6414 297.7043 37.3159 117.5631 30116.9259 245.2999 297.1482
ENERGY: 900000 4.3946 12.9636 8.1689 0.0000 -10629.8276 1431.8814 0.0000 0.0000 1842.3224 -7330.0968 314.3241 -9172.4192 -7387.0278 298.9579 -386.9112 -381.1285 30819.7958 111.4090 159.2109
ENERGY: 1200000 5.3102 11.8600 8.1613 0.0000 -10613.1264 1430.7705 0.0000 0.0000 1729.1968 -7427.8277 295.0234 -9157.0245 -7391.0084 298.5624 -118.3081 -88.5424 30298.9344 28.1712 74.8915
ENERGY: 1500000 6.1091 10.1343 7.2562 0.0000 -10825.5253 1555.5715 0.0000 0.0000 1794.4927 -7451.9614 306.1637 -9246.4541 -7399.3719 299.5047 812.3887 879.3422 29961.6088 71.2245 125.2479
TCL: Running FEP window  12: Lambda1 0.5499999999999999 Lambda2 0.6    [dLambda 0.050000000000000044]
TCL: Setting parameter firsttimestep to 0
TCL: Setting parameter alchLambda to 0.5499999999999999
Info: NONBONDED TABLE R-SQUARED SPACING: 0.0625
Info: NONBONDED TABLE SIZE: 705 POINTS
TCL: Setting parameter alchLambda2 to 0.6
Info: NONBONDED TABLE R-SQUARED SPACING: 0.0625
Info: NONBONDED TABLE SIZE: 705 POINTS
TCL: Running for 1500000 steps
ETITLE: TS BOND ANGLE DIHED IMPRP ELECT VDW BOUNDARY MISC KINETIC TOTAL TEMP POTENTIAL TOTALAVG TEMPAVG PRESSURE GPRESSURE VOLUME PRESSAVG GPRESSAVG
ENERGY: 0 6.1091 10.1343 7.2562 0.0000 -10825.4320 1555.1479 0.0000 0.0000 1793.6308 -7453.1537 306.0166 -9246.7844 -7453.1537 306.0166 805.5988 887.9886 29961.6088 805.5988 887.9886
ENERGY: 300000 4.7563 16.2666 7.0900 0.0000 -10705.9573 1460.5234 0.0000 0.0000 1757.5581 -7459.7628 299.8622 -9217.3210 -7405.0919 301.8837 256.4993 318.5847 29862.3368 367.3506 425.5472
ENERGY: 600000 5.6056 11.8140 10.6402 0.0000 -10602.4079 1405.1945 0.0000 0.0000 1734.8824 -7434.2711 295.9934 -9169.1535 -7428.6201 299.8712 -298.3724 -275.8475 30464.3108 241.6927 286.3742
ENERGY: 900000 6.8917 13.3587 8.2673 0.0000 -10579.0804 1408.1255 0.0000 0.0000 1786.0948 -7356.3424 304.7309 -9142.4373 -7408.1253 301.8131 -7.1157 30.4093 30161.4138 123.3617 176.9851
ENERGY: 1200000 2.6684 15.8868 8.1567 0.0000 -10597.5621 1402.1061 0.0000 0.0000 1760.0192 -7408.7249 300.2821 -9168.7441 -7408.9976 301.9619 -233.0690 -178.7593 30445.1552 99.1777 153.3966
ENERGY: 1500000 3.8637 13.1564 6.9533 0.0000 -10711.7856 1478.9722 0.0000 0.0000 1791.2135 -7417.6266 305.6042 -9208.8401 -7407.2864 303.3287 465.6376 529.6483 29845.6690 98.5000 158.8180
TCL: Running FEP window  13: Lambda1 0.6    Lambda2 0.65   [dLambda 0.050000000000000044]
TCL: Setting parameter firsttimestep to 0
TCL: Setting parameter alchLambda to 0.6
Info: NONBONDED TABLE R-SQUARED SPACING: 0.0625
Info: NONBONDED TABLE SIZE: 705 POINTS
TCL: Setting parameter alchLambda2 to 0.65
Info: NONBONDED TABLE R-SQUARED SPACING: 0.0625
Info: NONBONDED TABLE SIZE: 705 POINTS
TCL: Running for 1500000 steps
ETITLE: TS BOND ANGLE DIHED IMPRP ELECT VDW BOUNDARY MISC KINETIC TOTAL TEMP POTENTIAL TOTALAVG TEMPAVG PRESSURE GPRESSURE VOLUME PRESSAVG GPRESSAVG
ENERGY: 0 3.8637 13.1564 6.9533 0.0000 -10711.5907 1478.5965 0.0000 0.0000 1790.3396 -7418.6812 305.4551 -9209.0208 -7418.6812 305.4551 444.0449 539.8470 29845.6690 444.0449 539.8470
ENERGY: 300000 4.8270 12.8465 7.0534 0.0000 -10553.6659 1443.2205 0.0000 0.0000 1770.2510 -7315.4676 302.0277 -9085.7186 -7413.1696 297.0870 105.6722 132.3872 30564.4370 -49.8688 29.4051
ENERGY: 600000 1.3735 11.3063 11.3334 0.0000 -10533.4241 1386.9007 0.0000 0.0000 1784.6518 -7337.8585 304.4847 -9122.5103 -7388.7916 300.6989 -256.3129 -161.7332 30487.8729 -91.4923 -8.9350
ENERGY: 900000 3.1501 14.6051 8.1502 0.0000 -10695.4839 1476.3854 0.0000 0.0000 1754.3261 -7438.8670 299.3108 -9193.1931 -7402.6650 300.4796 478.1042 557.2635 29937.5529 63.0791 147.1024
ENERGY: 1200000 2.5716 10.1863 11.4169 0.0000 -10524.4127 1384.9473 0.0000 0.0000 1815.4686 -7299.8220 309.7424 -9115.2906 -7405.3661 300.7407 -210.4322 -166.9421 30598.9579 11.9887 86.9011
ENERGY: 1500000 1.1757 12.1287 6.6515 0.0000 -10524.1778 1388.1105 0.0000 0.0000 1706.4008 -7409.7107 291.1341 -9116.1114 -7413.8871 299.7786 -156.2995 -34.4616 30491.0965 -44.1310 27.3716
TCL: Running FEP window  14: Lambda1 0.65   Lambda2 0.7000000000000001 [dLambda 0.050000000000000044]
TCL: Setting parameter firsttimestep to 0
TCL: Setting parameter alchLambda to 0.65
Info: NONBONDED TABLE R-SQUARED SPACING: 0.0625
Info: NONBONDED TABLE SIZE: 705 POINTS
TCL: Setting parameter alchLambda2 to 0.7000000000000001
Info: NONBONDED TABLE R-SQUARED SPACING: 0.0625
Info: NONBONDED TABLE SIZE: 705 POINTS
TCL: Running for 1500000 steps
ETITLE: TS BOND ANGLE DIHED IMPRP ELECT VDW BOUNDARY MISC KINETIC TOTAL TEMP POTENTIAL TOTALAVG TEMPAVG PRESSURE GPRESSURE VOLUME PRESSAVG GPRESSAVG
ENERGY: 0 1.1757 12.1287 6.6515 0.0000 -10524.4473 1389.2428 0.0000 0.0000 1705.5102 -7409.7385 290.9821 -9115.2486 -7409.7385 290.9821 -96.3212 -9.3248 30491.0965 -96.3212 -9.3248
ENERGY: 300000 3.3134 11.6444 6.5943 0.0000 -10479.5344 1343.8567 0.0000 0.0000 1771.6582 -7342.4673 302.2678 -9114.1255 -7388.2408 299.5519 -787.7486 -719.4614 30858.0488 10.2944 73.9409
ENERGY: 600000 4.0426 16.6328 9.3273 0.0000 -10542.2729 1401.2010 0.0000 0.0000 1787.5270 -7323.5422 304.9753 -9111.0692 -7387.7648 299.3695 -53.7184 0.9241 30224.8346 -97.6213 -32.3627
ENERGY: 900000 1.8842 15.9683 9.2255 0.0000 -10536.9280 1367.4536 0.0000 0.0000 1768.3698 -7374.0267 301.7068 -9142.3964 -7377.4818 301.6235 -256.7451 -153.2454 29954.3863 -97.8809 -28.2372
ENERGY: 1200000 3.3958 16.6632 7.2692 0.0000 -10574.3629 1452.7771 0.0000 0.0000 1737.6583 -7356.5993 296.4670 -9094.2576 -7378.8356 301.3765 246.8782 397.8359 30640.3639 25.8776 99.0851
ENERGY: 1500000 5.4515 13.1667 7.5811 0.0000 -10675.6129 1525.4279 0.0000 0.0000 1709.3605 -7414.6253 291.6390 -9123.9858 -7395.9016 300.3187 1095.3383 1193.8499 29754.7378 16.8971 89.9099
TCL: Running FEP window  15: Lambda1 0.7000000000000001 Lambda2 0.7500000000000001 [dLambda 0.050000000000000044]
TCL: Setting parameter firsttimestep to 0
TCL: Setting parameter alchLambda to 0.7000000000000001
Info: NONBONDED TABLE R-SQUARED SPACING: 0.0625
Info: NONBONDED TABLE SIZE: 705 POINTS
TCL: Setting parameter alchLambda2 to 0.7500000000000001
Info: NONBONDED TABLE R-SQUARED SPACING: 0.0625
Info: NONBONDED TABLE SIZE: 705 POINTS
TCL: Running for 1500000 steps
ETITLE: TS BOND ANGLE DIHED IMPRP ELECT VDW BOUNDARY MISC KINETIC TOTAL TEMP POTENTIAL TOTALAVG TEMPAVG PRESSURE GPRESSURE VOLUME PRESSAVG GPRESSAVG
ENERGY: 0 5.4515 13.1667 7.5811 0.0000 -10677.0104 1526.1529 0.0000 0.0000 1708.4943 -7416.1640 291.4913 -9124.6583 -7416.1640 291.4913 1111.3507 1212.3892 29754.7378 1111.3507 1212.3892
ENERGY: 300000 2.9717 16.8897 7.2937 0.0000 -10612.5511 1375.0758 0.0000 0.0000 1753.0861 -7457.2341 299.0992 -9210.3202 -7454.5998 294.2762 -507.4686 -416.3480 30221.7355 -42.7327 26.4987
ENERGY: 600000 3.9635 18.7797 8.2700 0.0000 -10600.0310 1443.3473 0.0000 0.0000 1808.3302 -7317.3402 308.5246 -9125.6705 -7419.5542 298.1987 105.6183 243.3862 30404.7888 -3.0573 78.5952
ENERGY: 900000 3.1635 15.0073 6.8493 0.0000 -10702.1826 1476.9629 0.0000 0.0000 1788.7391 -7411.4605 305.1821 -9200.1996 -7423.1866 299.1726 343.8402 444.2497 30313.8048 140.3432 222.9867
ENERGY: 1200000 2.1296 9.7824 8.5162 0.0000 -10499.4620 1314.1448 0.0000 0.0000 1715.7646 -7449.1243 292.7317 -9164.8890 -7428.7503 298.4648 -968.6498 -967.5656 30570.8009 113.9341 188.3189
ENERGY: 1500000 1.8195 12.0903 7.7332 0.0000 -10609.5144 1382.3954 0.0000 0.0000 1786.7062 -7418.7698 304.8352 -9205.4760 -7425.1820 298.7857 -457.5224 -368.3668 30066.2288 47.9663 117.2753
TCL: Running FEP window  16: Lambda1 0.7500000000000001 Lambda2 0.8000000000000002 [dLambda 0.050000000000000044]
TCL: Setting parameter firsttimestep to 0
TCL: Setting parameter alchLambda to 0.7500000000000001
Info: NONBONDED TABLE R-SQUARED SPACING: 0.0625
Info: NONBONDED TABLE SIZE: 705 POINTS
TCL: Setting parameter alchLambda2 to 0.8000000000000002
Info: NONBONDED TABLE R-SQUARED SPACING: 0.0625
Info: NONBONDED TABLE SIZE: 705 POINTS
TCL: Running for 1500000 steps
ETITLE: TS BOND ANGLE DIHED IMPRP ELECT VDW BOUNDARY MISC KINETIC TOTAL TEMP POTENTIAL TOTALAVG TEMPAVG PRESSURE GPRESSURE VOLUME PRESSAVG GPRESSAVG
ENERGY: 0 1.8195 12.0903 7.7332 0.0000 -10610.3077 1382.4141 0.0000 0.0000 1785.8514 -7420.3992 304.6894 -9206.2506 -7420.3992 304.6894 -417.4998 -351.3948 30066.2288 -417.4998 -351.3948
ENERGY: 300000 4.2454 11.0119 7.3014 0.0000 -10495.3657 1290.1124 0.0000 0.0000 1801.9958 -7380.6989 307.4438 -9182.6947 -7382.0963 304.5211 -888.8724 -846.5682 30015.0290 -73.0115 -14.9034
ENERGY: 600000 1.6662 10.5034 8.1337 0.0000 -10628.6267 1478.7763 0.0000 0.0000 1777.7797 -7351.7674 303.3122 -9129.5471 -7381.1705 302.6420 486.6596 531.0956 30417.4988 -36.9073 28.9880
ENERGY: 900000 5.9776 16.4177 8.1633 0.0000 -10530.2147 1337.0129 0.0000 0.0000 1726.7695 -7435.8736 294.6092 -9162.6431 -7389.1503 301.7519 -740.9841 -722.5740 30154.0775 -147.7851 -85.5696
ENERGY: 1200000 2.6421 14.2923 7.4737 0.0000 -10620.7357 1443.4506 0.0000 0.0000 1749.8964 -7402.9807 298.5550 -9152.8771 -7396.3907 301.0917 111.8038 157.9199 30275.1843 -156.5850 -100.5762
ENERGY: 1500000 1.9493 14.0792 8.4508 0.0000 -10555.7791 1373.9864 0.0000 0.0000 1755.5980 -7401.7152 299.5278 -9157.3132 -7409.6118 300.0756 -408.8907 -338.5734 30725.3323 -151.9257 -92.9032
TCL: Running FEP window  17: Lambda1 0.8000000000000002 Lambda2 0.8500000000000002 [dLambda 0.050000000000000044]
TCL: Setting parameter firsttimestep to 0
TCL: Setting parameter alchLambda to 0.8000000000000002
Info: NONBONDED TABLE R-SQUARED SPACING: 0.0625
Info: NONBONDED TABLE SIZE: 705 POINTS
TCL: Setting parameter alchLambda2 to 0.8500000000000002
Info: NONBONDED TABLE R-SQUARED SPACING: 0.0625
Info: NONBONDED TABLE SIZE: 705 POINTS
TCL: Running for 1500000 steps
ETITLE: TS BOND ANGLE DIHED IMPRP ELECT VDW BOUNDARY MISC KINETIC TOTAL TEMP POTENTIAL TOTALAVG TEMPAVG PRESSURE GPRESSURE VOLUME PRESSAVG GPRESSAVG
ENERGY: 0 1.9493 14.0792 8.4508 0.0000 -10556.6674 1374.3047 0.0000 0.0000 1754.6934 -7403.1899 299.3734 -9157.8832 -7403.1899 299.3734 -405.0557 -316.9077 30725.3323 -405.0557 -316.9077
ENERGY: 300000 1.7323 19.4843 7.8084 0.0000 -10521.7050 1348.3147 0.0000 0.0000 1762.7826 -7381.5827 300.7535 -9144.3654 -7405.1589 301.1743 -731.5512 -624.2736 30843.8308 -288.7247 -213.6674
ENERGY: 600000 1.2250 17.3807 8.4288 0.0000 -10569.1677 1445.7740 0.0000 0.0000 1776.4849 -7319.8743 303.0913 -9096.3592 -7387.4200 301.0195 413.8030 479.0193 30458.4120 -64.5197 13.1652
ENERGY: 900000 1.6505 12.9908 7.0404 0.0000 -10554.5356 1397.9881 0.0000 0.0000 1669.1094 -7465.7565 284.7717 -9134.8659 -7384.1366 300.2463 -164.8537 -80.1453 30411.9527 -172.7268 -90.4496
ENERGY: 1200000 2.7283 13.7957 9.8458 0.0000 -10572.0591 1385.2283 0.0000 0.0000 1756.5253 -7403.9356 299.6860 -9160.4609 -7387.6357 300.6698 -254.3007 -183.6262 30473.7588 -249.2065 -167.2826
ENERGY: 1500000 4.7532 13.0934 6.3405 0.0000 -10570.8932 1366.4487 0.0000 0.0000 1792.2790 -7387.9784 305.7860 -9180.2574 -7393.4573 300.3174 -422.0514 -322.5993 29872.1685 -252.7864 -174.5839
TCL: Running FEP window  18: Lambda1 0.8500000000000002 Lambda2 0.9000000000000002 [dLambda 0.050000000000000044]
TCL: Setting parameter firsttimestep to 0
TCL: Setting parameter alchLambda to 0.8500000000000002
Info: NONBONDED TABLE R-SQUARED SPACING: 0.0625
Info: NONBONDED TABLE SIZE: 705 POINTS
TCL: Setting parameter alchLambda2 to 0.9000000000000002
Info: NONBONDED TABLE R-SQUARED SPACING: 0.0625
Info: NONBONDED TABLE SIZE: 705 POINTS
TCL: Running for 1500000 steps
ETITLE: TS BOND ANGLE DIHED IMPRP ELECT VDW BOUNDARY MISC KINETIC TOTAL TEMP POTENTIAL TOTALAVG TEMPAVG PRESSURE GPRESSURE VOLUME PRESSAVG GPRESSAVG
ENERGY: 0 4.7532 13.0934 6.3405 0.0000 -10571.9218 1365.7475 0.0000 0.0000 1791.3707 -7390.6164 305.6310 -9181.9871 -7390.6164 305.6310 -399.0238 -318.1656 29872.1685 -399.0238 -318.1656
ENERGY: 300000 4.1394 9.4234 7.7337 0.0000 -10679.5755 1387.3624 0.0000 0.0000 1751.8573 -7519.0594 298.8895 -9270.9167 -7371.5041 304.1165 -370.2510 -251.4254 29816.2296 382.1031 442.0707
ENERGY: 600000 2.9270 16.8577 11.2118 0.0000 -10681.5490 1480.7714 0.0000 0.0000 1769.5461 -7400.2349 301.9075 -9169.7810 -7386.5054 303.8199 431.2860 503.7804 30255.6511 280.4624 331.0575
ENERGY: 900000 2.7513 12.3425 7.1973 0.0000 -10611.0705 1401.5767 0.0000 0.0000 1736.9865 -7450.2162 296.3524 -9187.2027 -7389.3550 302.8668 -207.6534 -154.3506 30222.7883 163.1020 220.7719
ENERGY: 1200000 2.9102 10.8970 7.7521 0.0000 -10518.2780 1353.0893 0.0000 0.0000 1722.8034 -7420.8260 293.9326 -9143.6294 -7388.4106 302.5012 -444.2421 -363.0223 30238.7905 135.0768 196.9909
ENERGY: 1500000 4.3010 12.2832 7.6905 0.0000 -10602.5399 1410.6870 0.0000 0.0000 1749.1821 -7418.3961 298.4331 -9167.5782 -7387.2577 302.5089 -114.1687 -47.8924 30023.5276 92.6217 156.2362
TCL: Running FEP window  19: Lambda1 0.9000000000000002 Lambda2 0.9500000000000003 [dLambda 0.050000000000000044]
TCL: Setting parameter firsttimestep to 0
TCL: Setting parameter alchLambda to 0.9000000000000002
Info: NONBONDED TABLE R-SQUARED SPACING: 0.0625
Info: NONBONDED TABLE SIZE: 705 POINTS
TCL: Setting parameter alchLambda2 to 0.9500000000000003
Info: NONBONDED TABLE R-SQUARED SPACING: 0.0625
Info: NONBONDED TABLE SIZE: 705 POINTS
TCL: Running for 1500000 steps
ETITLE: TS BOND ANGLE DIHED IMPRP ELECT VDW BOUNDARY MISC KINETIC TOTAL TEMP POTENTIAL TOTALAVG TEMPAVG PRESSURE GPRESSURE VOLUME PRESSAVG GPRESSAVG
ENERGY: 0 4.3010 12.2832 7.6905 0.0000 -10603.6192 1410.4049 0.0000 0.0000 1748.3111 -7420.6286 298.2845 -9168.9397 -7420.6286 298.2845 -108.9887 -37.6304 30023.5276 -108.9887 -37.6304
ENERGY: 300000 2.9346 16.0370 9.1774 0.0000 -10506.8594 1338.6941 0.0000 0.0000 1774.1527 -7365.8636 302.6934 -9140.0163 -7409.8483 299.3534 -685.3655 -605.2901 30568.8979 -434.2561 -337.9515
ENERGY: 600000 2.3415 14.7990 9.3080 0.0000 -10562.4441 1401.5430 0.0000 0.0000 1779.4252 -7355.0274 303.5930 -9134.4526 -7401.2270 300.0392 -274.0139 -200.7051 30703.6025 -340.2498 -252.3744
ENERGY: 900000 5.1872 14.5002 8.2072 0.0000 -10684.3830 1462.7489 0.0000 0.0000 1738.9927 -7454.7469 296.6947 -9193.7396 -7400.7296 300.5476 101.9232 71.1996 30466.6286 -148.8638 -80.2259
ENERGY: 1200000 0.5423 14.2797 8.3515 0.0000 -10605.2317 1453.4681 0.0000 0.0000 1774.5983 -7353.9919 302.7694 -9128.5902 -7390.1562 301.5584 657.1466 759.9428 29851.9329 -134.7797 -65.0717
ENERGY: 1500000 3.7145 21.3761 7.6037 0.0000 -10526.6265 1366.5681 0.0000 0.0000 1767.8897 -7359.4744 301.6249 -9127.3641 -7398.2403 300.5393 -244.1312 -163.3172 30252.8826 -262.5523 -193.5864
TCL: Running FEP window  20: Lambda1 0.9500000000000003 Lambda2 1.0    [dLambda 0.04999999999999971]
TCL: Setting parameter firsttimestep to 0
TCL: Setting parameter alchLambda to 0.9500000000000003
Info: NONBONDED TABLE R-SQUARED SPACING: 0.0625
Info: NONBONDED TABLE SIZE: 705 POINTS
TCL: Setting parameter alchLambda2 to 1.0
Info: NONBONDED TABLE R-SQUARED SPACING: 0.0625
Info: NONBONDED TABLE SIZE: 705 POINTS
TCL: Running for 1500000 steps
ETITLE: TS BOND ANGLE DIHED IMPRP ELECT VDW BOUNDARY MISC KINETIC TOTAL TEMP POTENTIAL TOTALAVG TEMPAVG PRESSURE GPRESSURE VOLUME PRESSAVG GPRESSAVG
ENERGY: 0 3.7145 21.3761 7.6037 0.0000 -10527.6997 1368.2283 0.0000 0.0000 1766.9658 -7359.8113 301.4673 -9126.7772 -7359.8113 301.4673 -221.5495 -122.9121 30252.8826 -221.5495 -122.9121
ENERGY: 300000 4.8534 23.7664 7.7391 0.0000 -10685.9772 1430.0184 0.0000 0.0000 1781.1680 -7438.4319 303.8903 -9219.6000 -7390.5180 298.9780 187.4209 219.7671 30024.0537 -232.4847 -160.8722
ENERGY: 600000 3.8979 16.9244 7.1111 0.0000 -10661.3493 1447.0809 0.0000 0.0000 1793.9660 -7392.3689 306.0738 -9186.3349 -7389.5378 301.7625 246.9416 294.3925 30377.5167 -80.9595 -13.0985
ENERGY: 900000 2.0001 15.2699 6.6963 0.0000 -10579.1570 1444.3115 0.0000 0.0000 1771.0858 -7339.7933 302.1702 -9110.8791 -7388.6334 301.6817 236.6225 225.4389 30569.7627 -104.9740 -44.4385
ENERGY: 1200000 4.3303 16.1995 8.8903 0.0000 -10601.6925 1438.6735 0.0000 0.0000 1779.1835 -7354.4155 303.5517 -9133.5990 -7396.0235 301.1405 230.9317 234.3379 30373.8450 -62.3882 -2.7024
ENERGY: 1500000 5.5402 14.5253 11.1278 0.0000 -10680.9398 1450.3891 0.0000 0.0000 1739.9252 -7459.4323 296.8538 -9199.3575 -7404.7886 300.3183 290.1221 389.9134 29857.9312 -84.8551 -19.9016
TCL: Exiting due to exit command.
