Info: SIMULATION PARAMETERS:
Info: TIMESTEP               2
Info: NUMBER OF STEPS        0
Info: STEPS PER CYCLE        10
Info: PERIODIC CELL BASIS 1  31.7214 0 0
Info: PERIODIC CELL BASIS 2  0 29.3505 0
Info: PERIODIC CELL BASIS 3  0 0 32.2306
Info: PERIODIC CELL CENTER   0 0 0
Info: WRAPPING WATERS AROUND PERIODIC BOUNDARIES ON OUTPUT.
Info: WRAPPING ALL CLUSTERS AROUND PERIODIC BOUNDARIES ON OUTPUT.
Info: FIRST LDB TIMESTEP     50
Info: LAST LDB TIMESTEP     -1
Info: HOM BACKGROUND SCALING 1
Info: PME BACKGROUND SCALING 1
Info: MIN ATOMS PER PATCH    40
Info: EMPTY PATCH LOAD       40 ATOMS
Info: VELOCITY FILE          mobley_8514745_equil.vel
Info: CENTER OF MASS MOVING INITIALLY? NO
Info: DIELECTRIC             1
Info: EXCLUDE                SCALED ONE-FOUR
Info: 1-4 ELECTROSTATICS SCALED BY 0.833333
Info: MODIFIED 1-4 VDW PARAMETERS WILL BE USED
Info: DCD FILENAME           mobley_8514745_prod.dcd
Info: DCD FREQUENCY          100000
Info: DCD FIRST STEP         100000
Info: DCD FILE WILL CONTAIN UNIT CELL DATA
Info: XST FILENAME           mobley_8514745_prod.xst
Info: XST FREQUENCY          100000
Info: NO VELOCITY DCD OUTPUT
Info: NO FORCE DCD OUTPUT
Info: OUTPUT FILENAME        mobley_8514745_prod
Info: BINARY OUTPUT FILES WILL BE USED
Info: RESTART FILENAME       mobley_8514745_prod.restart
Info: RESTART FREQUENCY      100000
Info: BINARY RESTART FILES WILL BE USED
Info: CUTOFF                 9
Info: PAIRLIST DISTANCE      11
Info: PAIRLIST SHRINK RATE   0.01
Info: PAIRLIST GROW RATE     0.01
Info: PAIRLIST TRIGGER       0.3
Info: PAIRLISTS PER CYCLE    2
Info: PAIRLISTS ENABLED
Info: MARGIN                 2
Info: HYDROGEN GROUP CUTOFF  2.5
Info: PATCH DIMENSION        15.5
Info: ENERGY OUTPUT STEPS    100000
Info: ENERGY EVALUATION STEPS    100000
Info: OUTPUT ENERGY PRECISION 4
Info: CROSSTERM ENERGY INCLUDED IN DIHEDRAL
Info: TIMING OUTPUT STEPS    1000000
Info: PRESSURE OUTPUT STEPS  100000
Info: ALCHEMICAL FEP ON
Info: FEP CURRENT LAMBDA VALUE     0
Info: FEP COMPARISON LAMBDA VALUE  0.05
Info: FEP INTRA-ALCHEMICAL NON-BONDED INTERACTIONS WILL BE RETAINED
Info: FEP INTRA-ALCHEMICAL BONDED INTERACTIONS WILL BE RETAINED
Info: FEP VDW SHIFTING COEFFICIENT 5
Info: FEP ELEC. ACTIVE FOR ANNIHILATED PARTICLES BETWEEN LAMBDA = 0 AND LAMBDA = 0.5
Info: FEP ELEC. ACTIVE FOR EXNIHILATED PARTICLES BETWEEN LAMBDA = 0.5 AND LAMBDA = 1
Info: FEP VDW ACTIVE FOR ANNIHILATED PARTICLES BETWEEN LAMBDA = 0 AND LAMBDA = 1
Info: FEP VDW ACTIVE FOR EXNIHILATED PARTICLES BETWEEN LAMBDA = 0 AND LAMBDA = 1
Info: FEP BOND ACTIVE FOR ANNIHILATED PARTICLES BETWEEN LAMBDA = 1 AND LAMBDA = 1
Info: FEP BOND ACTIVE FOR EXNIHILATED PARTICLES BETWEEN LAMBDA = 0 AND LAMBDA = 0
Info: LANGEVIN DYNAMICS ACTIVE
Info: LANGEVIN TEMPERATURE   300
Info: LANGEVIN USING BBK INTEGRATOR
Info: LANGEVIN DAMPING COEFFICIENT IS 1 INVERSE PS
Info: LANGEVIN DYNAMICS APPLIED TO HYDROGENS
Info: LANGEVIN PISTON PRESSURE CONTROL ACTIVE
Info:        TARGET PRESSURE IS 1.01325 BAR
Info:     OSCILLATION PERIOD IS 50 FS
Info:             DECAY TIME IS 25 FS
Info:     PISTON TEMPERATURE IS 300 K
Info:       PRESSURE CONTROL IS GROUP-BASED
Info:    INITIAL STRAIN RATE IS 0.000624328 0.000624328 0.000624328
Info:       CELL FLUCTUATION IS ISOTROPIC
Info: PARTICLE MESH EWALD (PME) ACTIVE
Info: PME TOLERANCE               1e-06
Info: PME EWALD COEFFICIENT       0.348832
Info: PME INTERPOLATION ORDER     4
Info: PME GRID DIMENSIONS         32 32 36
Info: PME MAXIMUM GRID SPACING    1
Info: PME CALCULATION WILL BE PERFORMED ON GPU
Info: FULL ELECTROSTATIC EVALUATION FREQUENCY      2
Info: USING VERLET I (r-RESPA) MTS SCHEME.
Info: C1 SPLITTING OF LONG RANGE ELECTROSTATICS
Info: PLACING ATOMS IN PATCHES BY HYDROGEN GROUPS
Info: RIGID BONDS TO HYDROGEN : ALL
Info:         ERROR TOLERANCE : 1e-08
Info:          MAX ITERATIONS : 100
Info: RIGID WATER USING SETTLE ALGORITHM
Info: RANDOM NUMBER SEED     1743981313
Info: USE HYDROGEN BONDS?    NO
Info: Using AMBER format force field!
Info: AMBER PARM FILE        mobley_8514745.prmtop
Info: COORDINATE PDB         mobley_8514745.pdb
Info: Exclusions will be read from PARM file!
Info: SCNB (VDW SCALING)     2
Info: USING ARITHMETIC MEAN TO COMBINE L-J SIGMA PARAMETERS
Info: BINARY COORDINATES     mobley_8514745_equil.coor
Info: SUMMARY OF PARAMETERS:
Info: 9 BONDS
Info: 12 ANGLES
Info:   12 HARMONIC
Info:   0 COSINE-BASED
Info: 20 DIHEDRAL
Info: 0 IMPROPER
Info: 0 CROSSTERM
Info: 0 VDW
Info: 36 VDW_PAIRS
Info: 0 NBTHOLE_PAIRS
Info: To read alchdata from file: mobley_8514745.pdb
Info: To read alchflag data from column: 5
Info: STRUCTURE SUMMARY:
Info: 2915 ATOMS
Info: 2914 BONDS
Info: 40 ANGLES
Info: 64 DIHEDRALS
Info: 0 IMPROPERS
Info: 0 CROSSTERMS
Info: 3001 EXCLUSIONS
Info: 2906 RIGID BONDS
Info: ALCH: 0 ATOMS TO DISAPPEAR IN FINAL STATE
Info: ALCH: 23 ATOMS TO APPEAR IN FINAL STATE
Info: 5839 DEGREES OF FREEDOM
Info: 973 HYDROGEN GROUPS
Info: 4 ATOMS IN LARGEST HYDROGEN GROUP
Info: 973 MIGRATION GROUPS
Info: 4 ATOMS IN LARGEST MIGRATION GROUP
Info: TOTAL MASS = 17497.6 amu
Info: TOTAL CHARGE = -0.000400051 e
Info: MASS DENSITY = 0.968282 g/cm^3
Info: ATOM DENSITY = 0.097141 atoms/A^3
Info: ADDED 0 IMPLICIT EXCLUSIONS
Info: NONBONDED TABLE R-SQUARED SPACING: 0.0625
Info: NONBONDED TABLE SIZE: 705 POINTS
Info: REMOVING COM VELOCITY -0.0982091 -0.0839934 0.000551273
Info: Use 3D box decompostion in PME FFT.
Info: Updated CUDA force table with 4096 elements.
Info: Updated CUDA LJ table with 8 x 8 elements.
Info: Found 26 unique exclusion lists needing 84 bytes
TCL: Running for 1500000 steps
ETITLE: TS BOND ANGLE DIHED IMPRP ELECT VDW BOUNDARY MISC KINETIC TOTAL TEMP POTENTIAL TOTALAVG TEMPAVG PRESSURE GPRESSURE VOLUME PRESSAVG GPRESSAVG
ENERGY: 0 2.8671 7.3735 5.9052 0.0000 -10567.1031 1387.9948 0.0000 0.0000 1758.1047 -7404.8577 303.0377 -9162.9625 -7404.8577 303.0377 -350.6430 -270.9442 30007.9192 -350.6430 -270.9442
ENERGY: 300000 1.3416 5.1513 7.1824 0.0000 -10659.4665 1526.4461 0.0000 0.0000 1731.5273 -7387.8178 298.4567 -9119.3452 -7433.8885 299.3844 741.4165 803.8373 30040.4300 31.1591 87.3948
ENERGY: 600000 2.6715 9.6286 6.5277 0.0000 -10717.3140 1512.1189 0.0000 0.0000 1717.7434 -7468.6240 296.0808 -9186.3674 -7430.8061 298.1220 370.2543 358.2025 29774.0138 151.1003 192.0252
ENERGY: 900000 1.4784 8.3925 6.9334 0.0000 -10416.2218 1370.5340 0.0000 0.0000 1737.2024 -7291.6810 299.4348 -9028.8834 -7420.1775 297.5408 -494.7437 -398.2512 30466.9045 -15.3831 43.5500
ENERGY: 1200000 1.4513 10.6951 8.6976 0.0000 -10574.4745 1418.9144 0.0000 0.0000 1783.8913 -7350.8248 307.4824 -9134.7161 -7411.0730 298.8577 4.9639 -2.7171 29808.1316 -43.4438 7.9930
ENERGY: 1500000 1.7066 12.5399 5.6685 0.0000 -10456.4749 1409.0686 0.0000 0.0000 1709.7336 -7317.7577 294.7002 -9027.4913 -7406.6297 298.0607 142.6247 167.2367 29786.9667 9.0234 62.9667
TCL: Running FEP window   2: Lambda1 0.05   Lambda2 0.1    [dLambda 0.05  ]
TCL: Setting parameter firsttimestep to 0
TCL: Setting parameter alchLambda to 0.05
Info: NONBONDED TABLE R-SQUARED SPACING: 0.0625
Info: NONBONDED TABLE SIZE: 705 POINTS
TCL: Setting parameter alchLambda2 to 0.1
Info: NONBONDED TABLE R-SQUARED SPACING: 0.0625
Info: NONBONDED TABLE SIZE: 705 POINTS
TCL: Running for 1500000 steps
ETITLE: TS BOND ANGLE DIHED IMPRP ELECT VDW BOUNDARY MISC KINETIC TOTAL TEMP POTENTIAL TOTALAVG TEMPAVG PRESSURE GPRESSURE VOLUME PRESSAVG GPRESSAVG
ENERGY: 0 1.7066 12.5399 5.6685 0.0000 -10456.4727 1411.7527 0.0000 0.0000 1708.9031 -7315.9019 294.5570 -9024.8050 -7315.9019 294.5570 107.2909 172.4030 29786.9667 107.2909 172.4030
ENERGY: 300000 3.4081 8.7758 6.5596 0.0000 -10610.4557 1513.2808 0.0000 0.0000 1755.6948 -7322.7366 302.6223 -9078.4314 -7295.4107 302.6748 711.8311 741.9304 29810.0790 472.4704 510.0013
ENERGY: 600000 2.5080 9.5994 8.0594 0.0000 -10460.7259 1290.7286 0.0000 0.0000 1695.7354 -7454.0952 292.2873 -9149.8305 -7320.2348 300.1127 -1290.7468 -1230.7297 29833.8101 83.7817 130.6685
ENERGY: 900000 2.6395 9.2039 7.9865 0.0000 -10663.2411 1475.0861 0.0000 0.0000 1766.0999 -7402.2252 304.4158 -9168.3250 -7342.0158 301.3929 96.0516 151.6180 30079.8877 172.5541 226.1192
ENERGY: 1200000 2.9990 9.3474 8.1671 0.0000 -10593.2822 1440.3348 0.0000 0.0000 1763.5165 -7368.9175 303.9705 -9132.4340 -7344.5080 301.9407 83.1915 151.4929 29785.5077 81.3616 138.7107
ENERGY: 1500000 2.9841 10.1613 6.7502 0.0000 -10324.5066 1331.4985 0.0000 0.0000 1671.7034 -7301.4090 288.1450 -8973.1124 -7348.0577 300.5650 -835.2995 -794.1310 30884.1457 -16.2783 41.4323
TCL: Running FEP window   3: Lambda1 0.1    Lambda2 0.15000000000000002 [dLambda 0.05000000000000002]
TCL: Setting parameter firsttimestep to 0
TCL: Setting parameter alchLambda to 0.1
Info: NONBONDED TABLE R-SQUARED SPACING: 0.0625
Info: NONBONDED TABLE SIZE: 705 POINTS
TCL: Setting parameter alchLambda2 to 0.15000000000000002
Info: NONBONDED TABLE R-SQUARED SPACING: 0.0625
Info: NONBONDED TABLE SIZE: 705 POINTS
TCL: Running for 1500000 steps
ETITLE: TS BOND ANGLE DIHED IMPRP ELECT VDW BOUNDARY MISC KINETIC TOTAL TEMP POTENTIAL TOTALAVG TEMPAVG PRESSURE GPRESSURE VOLUME PRESSAVG GPRESSAVG
ENERGY: 0 2.9841 10.1613 6.7502 0.0000 -10324.5067 1336.5014 0.0000 0.0000 1670.8274 -7297.2823 287.9940 -8968.1097 -7297.2823 287.9940 -852.8797 -783.3919 30884.1457 -852.8797 -783.3919
ENERGY: 300000 3.8559 10.9131 9.3951 0.0000 -10465.3534 1388.7702 0.0000 0.0000 1731.6407 -7320.7783 298.4762 -9052.4191 -7316.5860 297.6184 71.4232 94.3376 29728.5372 -176.1646 -143.5994
ENERGY: 600000 1.7092 15.2256 8.7872 0.0000 -10598.0750 1435.9181 0.0000 0.0000 1725.2203 -7411.2147 297.3695 -9136.4350 -7360.8939 295.6128 195.3318 277.5259 29565.7997 -270.9613 -229.0388
ENERGY: 900000 2.4721 10.5993 6.4309 0.0000 -10527.5209 1356.0048 0.0000 0.0000 1700.1297 -7451.8841 293.0448 -9152.0138 -7383.9321 296.3941 -597.6430 -602.3239 29860.7927 -316.9895 -270.8329
ENERGY: 1200000 1.8774 6.7771 7.5561 0.0000 -10708.9848 1545.1040 0.0000 0.0000 1717.2369 -7430.4334 295.9935 -9147.6702 -7391.7628 296.6716 687.9742 807.9138 29829.8259 -146.6620 -91.0864
ENERGY: 1500000 1.6058 16.2776 6.8889 0.0000 -10581.6317 1474.0924 0.0000 0.0000 1748.0452 -7334.7217 301.3038 -9082.7669 -7380.2081 297.3110 334.4092 470.1074 29885.5637 -103.3111 -40.0181
TCL: Running FEP window   4: Lambda1 0.15000000000000002 Lambda2 0.2    [dLambda 0.04999999999999999]
TCL: Setting parameter firsttimestep to 0
TCL: Setting parameter alchLambda to 0.15000000000000002
Info: NONBONDED TABLE R-SQUARED SPACING: 0.0625
Info: NONBONDED TABLE SIZE: 705 POINTS
TCL: Setting parameter alchLambda2 to 0.2
Info: NONBONDED TABLE R-SQUARED SPACING: 0.0625
Info: NONBONDED TABLE SIZE: 705 POINTS
TCL: Running for 1500000 steps
ETITLE: TS BOND ANGLE DIHED IMPRP ELECT VDW BOUNDARY MISC KINETIC TOTAL TEMP POTENTIAL TOTALAVG TEMPAVG PRESSURE GPRESSURE VOLUME PRESSAVG GPRESSAVG
ENERGY: 0 1.6058 16.2776 6.8889 0.0000 -10581.6309 1474.5772 0.0000 0.0000 1747.1744 -7335.1069 301.1537 -9082.2813 -7335.1069 301.1537 387.1340 475.5545 29885.5637 387.1340 475.5545
ENERGY: 300000 1.8617 10.8082 6.9285 0.0000 -10503.0771 1379.4811 0.0000 0.0000 1759.4170 -7344.5806 303.2639 -9103.9976 -7342.6108 303.4676 -220.0268 -180.1323 29668.6464 195.9001 275.9575
ENERGY: 600000 3.0480 7.4369 6.2182 0.0000 -10516.9666 1398.3133 0.0000 0.0000 1755.9227 -7346.0275 302.6616 -9101.9502 -7362.2301 301.4993 -213.3702 -152.6891 29957.4971 129.3286 209.1049
ENERGY: 900000 3.0676 12.5071 6.7780 0.0000 -10550.8327 1455.9861 0.0000 0.0000 1787.6918 -7284.8020 308.1375 -9072.4938 -7349.1028 302.7117 411.4059 503.7917 29983.1373 100.2795 176.7188
ENERGY: 1200000 1.2917 9.4574 10.1073 0.0000 -10416.1173 1321.3086 0.0000 0.0000 1726.0734 -7347.8789 297.5166 -9073.9523 -7355.6352 301.8754 -630.5890 -585.8233 29706.0522 -2.0965 64.6447
ENERGY: 1500000 1.1461 6.3523 7.0511 0.0000 -10680.4035 1491.4034 0.0000 0.0000 1777.5993 -7396.8514 306.3979 -9174.4507 -7361.1641 301.9312 631.6542 661.7785 29683.3839 77.0722 138.2259
TCL: Running FEP window   5: Lambda1 0.2    Lambda2 0.25   [dLambda 0.04999999999999999]
TCL: Setting parameter firsttimestep to 0
TCL: Setting parameter alchLambda to 0.2
Info: NONBONDED TABLE R-SQUARED SPACING: 0.0625
Info: NONBONDED TABLE SIZE: 705 POINTS
TCL: Setting parameter alchLambda2 to 0.25
Info: NONBONDED TABLE R-SQUARED SPACING: 0.0625
Info: NONBONDED TABLE SIZE: 705 POINTS
TCL: Running for 1500000 steps
ETITLE: TS BOND ANGLE DIHED IMPRP ELECT VDW BOUNDARY MISC KINETIC TOTAL TEMP POTENTIAL TOTALAVG TEMPAVG PRESSURE GPRESSURE VOLUME PRESSAVG GPRESSAVG
ENERGY: 0 1.1461 6.3523 7.0511 0.0000 -10680.4020 1492.0491 0.0000 0.0000 1776.7448 -7397.0587 306.2506 -9173.8035 -7397.0587 306.2506 594.1626 668.4032 29683.3839 594.1626 668.4032
ENERGY: 300000 1.9899 11.1857 7.4789 0.0000 -10542.9800 1366.9857 0.0000 0.0000 1676.1076 -7479.2320 288.9042 -9155.3397 -7400.3567 299.6202 -1072.0552 -950.3627 30387.5495 88.5666 183.1819
ENERGY: 600000 1.7269 8.5415 8.5330 0.0000 -10474.2838 1351.3193 0.0000 0.0000 1739.4230 -7364.7401 299.8176 -9104.1630 -7379.2347 301.0817 -625.8285 -572.4093 29905.3407 -15.2047 48.7211
ENERGY: 900000 1.2270 12.7770 5.9630 0.0000 -10647.9034 1448.5302 0.0000 0.0000 1755.8575 -7423.5486 302.6503 -9179.4061 -7384.1299 299.5920 17.9379 41.3201 30113.4714 36.1354 90.0312
ENERGY: 1200000 1.5080 9.7424 7.1254 0.0000 -10626.2352 1482.6806 0.0000 0.0000 1738.4541 -7386.7247 299.6506 -9125.1788 -7381.4234 299.8802 733.6680 736.5494 29331.8845 121.9199 181.4527
ENERGY: 1500000 3.6524 9.4938 7.0351 0.0000 -10611.0904 1404.6975 0.0000 0.0000 1731.7521 -7454.4595 298.4954 -9186.2116 -7382.5013 300.4074 -235.0050 -136.1244 29455.4954 137.4007 198.3589
TCL: Running FEP window   6: Lambda1 0.25   Lambda2 0.3    [dLambda 0.04999999999999999]
TCL: Setting parameter firsttimestep to 0
TCL: Setting parameter alchLambda to 0.25
Info: NONBONDED TABLE R-SQUARED SPACING: 0.0625
Info: NONBONDED TABLE SIZE: 705 POINTS
TCL: Setting parameter alchLambda2 to 0.3
Info: NONBONDED TABLE R-SQUARED SPACING: 0.0625
Info: NONBONDED TABLE SIZE: 705 POINTS
TCL: Running for 1500000 steps
ETITLE: TS BOND ANGLE DIHED IMPRP ELECT VDW BOUNDARY MISC KINETIC TOTAL TEMP POTENTIAL TOTALAVG TEMPAVG PRESSURE GPRESSURE VOLUME PRESSAVG GPRESSAVG
ENERGY: 0 3.6524 9.4938 7.0351 0.0000 -10611.0910 1405.9352 0.0000 0.0000 1730.9080 -7454.0664 298.3499 -9184.9744 -7454.0664 298.3499 -215.5873 -124.7337 29455.4954 -215.5873 -124.7337
ENERGY: 300000 2.0812 8.8145 7.6685 0.0000 -10446.0620 1321.4178 0.0000 0.0000 1784.3443 -7321.7357 307.5605 -9106.0800 -7374.9635 300.6950 -793.9118 -811.8677 30067.2636 -568.1479 -502.9099
ENERGY: 600000 2.0342 10.1642 8.1880 0.0000 -10517.5543 1400.0696 0.0000 0.0000 1737.0180 -7360.0802 299.4031 -9097.0982 -7367.3981 300.1642 -396.3826 -350.2841 30462.4625 -393.4584 -349.9970
ENERGY: 900000 0.9011 11.8084 7.0893 0.0000 -10684.9456 1508.3159 0.0000 0.0000 1739.9608 -7416.8702 299.9103 -9156.8310 -7380.2016 299.1607 579.3542 657.9055 29886.8651 -199.5080 -153.7745
ENERGY: 1200000 2.7558 12.7428 7.7249 0.0000 -10635.6859 1471.5318 0.0000 0.0000 1747.2113 -7393.7193 301.1600 -9140.9306 -7374.0357 299.7643 133.9012 182.3659 30107.9051 -153.1604 -111.4835
ENERGY: 1500000 1.7179 12.1433 9.3500 0.0000 -10576.5308 1435.3014 0.0000 0.0000 1760.8109 -7357.2073 303.5041 -9118.0182 -7377.7988 299.9548 331.3366 407.3252 29446.8376 -64.8406 -16.9020
TCL: Running FEP window   7: Lambda1 0.3    Lambda2 0.35   [dLambda 0.04999999999999999]
TCL: Setting parameter firsttimestep to 0
TCL: Setting parameter alchLambda to 0.3
Info: NONBONDED TABLE R-SQUARED SPACING: 0.0625
Info: NONBONDED TABLE SIZE: 705 POINTS
TCL: Setting parameter alchLambda2 to 0.35
Info: NONBONDED TABLE R-SQUARED SPACING: 0.0625
Info: NONBONDED TABLE SIZE: 705 POINTS
TCL: Running for 1500000 steps
ETITLE: TS BOND ANGLE DIHED IMPRP ELECT VDW BOUNDARY MISC KINETIC TOTAL TEMP POTENTIAL TOTALAVG TEMPAVG PRESSURE GPRESSURE VOLUME PRESSAVG GPRESSAVG
ENERGY: 0 1.7179 12.1433 9.3500 0.0000 -10576.5308 1436.1252 0.0000 0.0000 1759.9510 -7357.2435 303.3559 -9117.1944 -7357.2435 303.3559 339.7366 418.9185 29446.8376 339.7366 418.9185
ENERGY: 300000 4.7902 6.7920 6.0673 0.0000 -10355.3524 1334.6979 0.0000 0.0000 1701.7944 -7301.2107 293.3317 -9003.0051 -7312.2022 302.5048 -593.4162 -560.1078 30254.9392 268.0375 335.8232
ENERGY: 600000 3.3129 16.1205 8.2243 0.0000 -10405.4107 1335.8083 0.0000 0.0000 1734.3476 -7307.5971 298.9428 -9041.9448 -7322.5019 300.1783 -567.5800 -562.4568 30381.5034 -119.8350 -62.5743
ENERGY: 900000 1.9961 7.6552 7.5375 0.0000 -10487.2020 1388.4464 0.0000 0.0000 1746.1447 -7335.4220 300.9762 -9081.5667 -7330.9822 301.2785 -179.2394 -168.2298 29873.2280 -155.2613 -101.2400
ENERGY: 1200000 1.3686 10.5010 8.3032 0.0000 -10489.2326 1345.5150 0.0000 0.0000 1730.1739 -7393.3710 298.2234 -9123.5448 -7350.5233 300.3502 -610.6057 -592.7665 29811.3187 -201.5569 -152.6366
ENERGY: 1500000 2.9263 11.5797 6.7601 0.0000 -10709.0165 1605.9055 0.0000 0.0000 1723.5636 -7358.2812 297.0840 -9081.8448 -7357.6316 300.0234 1370.2898 1429.8345 29797.4358 -90.3986 -35.3198
TCL: Running FEP window   8: Lambda1 0.35   Lambda2 0.39999999999999997 [dLambda 0.04999999999999999]
TCL: Setting parameter firsttimestep to 0
TCL: Setting parameter alchLambda to 0.35
Info: NONBONDED TABLE R-SQUARED SPACING: 0.0625
Info: NONBONDED TABLE SIZE: 705 POINTS
TCL: Setting parameter alchLambda2 to 0.39999999999999997
Info: NONBONDED TABLE R-SQUARED SPACING: 0.0625
Info: NONBONDED TABLE SIZE: 705 POINTS
TCL: Running for 1500000 steps
ETITLE: TS BOND ANGLE DIHED IMPRP ELECT VDW BOUNDARY MISC KINETIC TOTAL TEMP POTENTIAL TOTALAVG TEMPAVG PRESSURE GPRESSURE VOLUME PRESSAVG GPRESSAVG
ENERGY: 0 2.9263 11.5797 6.7601 0.0000 -10709.0181 1605.9141 0.0000 0.0000 1722.6838 -7359.1540 296.9323 -9081.8379 -7359.1540 296.9323 1345.2121 1436.1178 29797.4358 1345.2121 1436.1178
ENERGY: 300000 1.4632 10.9697 7.8587 0.0000 -10672.8604 1474.9557 0.0000 0.0000 1788.7543 -7388.8589 308.3206 -9177.6132 -7341.5806 305.4367 432.3995 493.6324 29733.5665 454.2173 512.0909
ENERGY: 600000 3.7361 9.9565 9.0980 0.0000 -10633.9624 1456.9620 0.0000 0.0000 1773.8011 -7380.4087 305.7432 -9154.2098 -7361.6524 302.9237 282.6904 328.8557 29612.4677 279.2939 352.3799
ENERGY: 900000 2.1654 6.8596 8.8340 0.0000 -10550.2213 1417.1357 0.0000 0.0000 1724.3558 -7390.8708 297.2205 -9115.2267 -7367.0508 301.3179 -75.5974 45.6590 29767.3888 149.9352 221.4725
ENERGY: 1200000 2.5489 6.9541 8.5736 0.0000 -10513.7881 1384.0038 0.0000 0.0000 1757.6238 -7354.0838 302.9548 -9111.7076 -7358.3830 301.4145 -207.1582 -57.4769 29820.8052 182.8862 255.9004
ENERGY: 1500000 4.0259 9.1353 5.4875 0.0000 -10473.5006 1324.4424 0.0000 0.0000 1726.1063 -7404.3032 297.5222 -9130.4095 -7369.7686 300.6978 -646.8278 -578.7667 29537.2428 175.0297 241.7732
TCL: Running FEP window   9: Lambda1 0.39999999999999997 Lambda2 0.44999999999999996 [dLambda 0.04999999999999999]
TCL: Setting parameter firsttimestep to 0
TCL: Setting parameter alchLambda to 0.39999999999999997
Info: NONBONDED TABLE R-SQUARED SPACING: 0.0625
Info: NONBONDED TABLE SIZE: 705 POINTS
TCL: Setting parameter alchLambda2 to 0.44999999999999996
Info: NONBONDED TABLE R-SQUARED SPACING: 0.0625
Info: NONBONDED TABLE SIZE: 705 POINTS
TCL: Running for 1500000 steps
ETITLE: TS BOND ANGLE DIHED IMPRP ELECT VDW BOUNDARY MISC KINETIC TOTAL TEMP POTENTIAL TOTALAVG TEMPAVG PRESSURE GPRESSURE VOLUME PRESSAVG GPRESSAVG
ENERGY: 0 4.0259 9.1353 5.4875 0.0000 -10473.4998 1324.9154 0.0000 0.0000 1725.2376 -7404.6980 297.3725 -9129.9356 -7404.6980 297.3725 -646.0394 -566.6034 29537.2428 -646.0394 -566.6034
ENERGY: 300000 2.2449 11.8427 5.5027 0.0000 -10587.3941 1446.3866 0.0000 0.0000 1738.1155 -7383.3017 299.5922 -9121.4173 -7374.8972 300.7861 -182.6409 -86.0553 30512.8304 -244.5882 -160.4228
ENERGY: 600000 2.5931 10.8359 7.6010 0.0000 -10529.8836 1419.0976 0.0000 0.0000 1727.8968 -7361.8592 297.8309 -9089.7560 -7354.8645 302.4292 58.0819 166.5717 29734.1300 13.1264 99.8500
ENERGY: 900000 0.9690 11.2634 6.9712 0.0000 -10600.1295 1470.1538 0.0000 0.0000 1792.6855 -7318.0865 308.9983 -9110.7720 -7343.3352 302.3686 371.9450 439.4344 30134.1097 69.0092 147.2643
ENERGY: 1200000 4.7707 11.1502 7.6152 0.0000 -10542.4957 1357.4557 0.0000 0.0000 1817.1608 -7344.3430 313.2170 -9161.5038 -7338.2733 303.7316 -571.9055 -509.7620 29846.7956 -39.0516 35.7994
ENERGY: 1500000 1.8022 7.5235 7.1250 0.0000 -10529.2784 1404.3701 0.0000 0.0000 1706.1633 -7402.2943 294.0847 -9108.4575 -7350.9137 302.1585 -53.8341 35.6433 30151.3705 -82.7270 -8.8477
TCL: Running FEP window  10: Lambda1 0.44999999999999996 Lambda2 0.49999999999999994 [dLambda 0.04999999999999999]
TCL: Setting parameter firsttimestep to 0
TCL: Setting parameter alchLambda to 0.44999999999999996
Info: NONBONDED TABLE R-SQUARED SPACING: 0.0625
Info: NONBONDED TABLE SIZE: 705 POINTS
TCL: Setting parameter alchLambda2 to 0.49999999999999994
Info: NONBONDED TABLE R-SQUARED SPACING: 0.0625
Info: NONBONDED TABLE SIZE: 705 POINTS
TCL: Running for 1500000 steps
ETITLE: TS BOND ANGLE DIHED IMPRP ELECT VDW BOUNDARY MISC KINETIC TOTAL TEMP POTENTIAL TOTALAVG TEMPAVG PRESSURE GPRESSURE VOLUME PRESSAVG GPRESSAVG
ENERGY: 0 1.8022 7.5235 7.1250 0.0000 -10529.2770 1403.8473 0.0000 0.0000 1705.2975 -7403.6815 293.9355 -9108.9789 -7403.6815 293.9355 -48.5418 40.2805 30151.3705 -48.5418 40.2805
ENERGY: 300000 4.6250 8.9954 6.5343 0.0000 -10533.2110 1377.7001 0.0000 0.0000 1793.9543 -7341.4020 309.2169 -9135.3563 -7373.6181 299.7162 -148.7265 -178.7766 29971.7339 -332.3813 -282.6970
ENERGY: 600000 1.9028 12.6480 6.3640 0.0000 -10636.1748 1452.4102 0.0000 0.0000 1753.8260 -7409.0239 302.3002 -9162.8499 -7398.2269 299.3350 202.2492 267.1336 29832.1549 -216.8868 -168.4266
ENERGY: 900000 1.0702 9.9650 6.8629 0.0000 -10601.6213 1440.7665 0.0000 0.0000 1797.5408 -7345.4159 309.8351 -9142.9567 -7396.8967 299.5706 291.1087 310.9934 29830.7711 -118.4573 -76.3393
ENERGY: 1200000 3.3613 6.2837 6.3693 0.0000 -10505.9486 1406.5126 0.0000 0.0000 1752.2420 -7331.1797 302.0272 -9083.4217 -7386.6366 299.6820 179.9145 215.1825 29800.2115 -64.6235 -18.0416
ENERGY: 1500000 3.3242 11.8032 9.7624 0.0000 -10532.1956 1394.2927 0.0000 0.0000 1732.4559 -7380.5573 298.6167 -9113.0132 -7384.2764 299.6564 -420.7978 -304.6229 29925.6595 -48.2712 7.5684
TCL: Running FEP window  11: Lambda1 0.49999999999999994 Lambda2 0.5499999999999999 [dLambda 0.04999999999999999]
TCL: Setting parameter firsttimestep to 0
TCL: Setting parameter alchLambda to 0.49999999999999994
Info: NONBONDED TABLE R-SQUARED SPACING: 0.0625
Info: NONBONDED TABLE SIZE: 705 POINTS
TCL: Setting parameter alchLambda2 to 0.5499999999999999
Info: NONBONDED TABLE R-SQUARED SPACING: 0.0625
Info: NONBONDED TABLE SIZE: 705 POINTS
TCL: Running for 1500000 steps
ETITLE: TS BOND ANGLE DIHED IMPRP ELECT VDW BOUNDARY MISC KINETIC TOTAL TEMP POTENTIAL TOTALAVG TEMPAVG PRESSURE GPRESSURE VOLUME PRESSAVG GPRESSAVG
ENERGY: 0 3.3242 11.8031 9.7624 0.0000 -10532.1947 1394.9672 0.0000 0.0000 1731.5878 -7380.7501 298.4671 -9112.3379 -7380.7501 298.4671 -367.2293 -293.9057 29925.6595 -367.2293 -293.9057
ENERGY: 300000 2.3257 9.4071 8.0067 0.0000 -10632.0728 1470.6457 0.0000 0.0000 1752.5744 -7389.1132 302.0845 -9141.6876 -7353.5470 303.0098 453.4475 471.7934 29700.8505 -252.0052 -205.8785
ENERGY: 600000 4.2430 13.5096 6.6972 0.0000 -10477.7013 1307.3922 0.0000 0.0000 1704.1759 -7441.6834 293.7422 -9145.8593 -7372.6845 300.9865 -992.3348 -971.4747 29998.4722 -137.8794 -95.0247
ENERGY: 900000 1.0256 10.8351 6.3042 0.0000 -10629.0863 1457.4382 0.0000 0.0000 1691.8596 -7461.6236 291.6193 -9153.4832 -7388.6900 300.6194 270.4995 327.8310 29784.3803 -58.9749 -17.2629
ENERGY: 1200000 1.6039 13.4920 6.5859 0.0000 -10610.9371 1429.6073 0.0000 0.0000 1736.0306 -7423.6173 299.2329 -9159.6479 -7390.8965 300.2230 -96.1126 50.5512 29687.2769 -37.4846 7.7390
ENERGY: 1500000 2.6410 9.9004 6.7285 0.0000 -10371.8474 1350.2287 0.0000 0.0000 1707.1064 -7295.2424 294.2473 -9002.3488 -7390.5340 299.2005 -169.8668 -160.3621 30308.4985 -4.7886 40.0301
TCL: Running FEP window  12: Lambda1 0.5499999999999999 Lambda2 0.6    [dLambda 0.050000000000000044]
TCL: Setting parameter firsttimestep to 0
TCL: Setting parameter alchLambda to 0.5499999999999999
Info: NONBONDED TABLE R-SQUARED SPACING: 0.0625
Info: NONBONDED TABLE SIZE: 705 POINTS
TCL: Setting parameter alchLambda2 to 0.6
Info: NONBONDED TABLE R-SQUARED SPACING: 0.0625
Info: NONBONDED TABLE SIZE: 705 POINTS
TCL: Running for 1500000 steps
ETITLE: TS BOND ANGLE DIHED IMPRP ELECT VDW BOUNDARY MISC KINETIC TOTAL TEMP POTENTIAL TOTALAVG TEMPAVG PRESSURE GPRESSURE VOLUME PRESSAVG GPRESSAVG
ENERGY: 0 2.6410 9.9004 6.7285 0.0000 -10372.0566 1350.1373 0.0000 0.0000 1706.2928 -7296.3566 294.1071 -9002.6494 -7296.3566 294.1071 -230.9805 -151.3601 30308.4985 -230.9805 -151.3601
ENERGY: 300000 2.2733 11.0634 9.1451 0.0000 -10508.3064 1408.9976 0.0000 0.0000 1718.5506 -7358.2763 296.2199 -9076.8269 -7327.9958 299.7457 -183.6012 -94.0867 30136.5335 -405.6590 -332.4823
ENERGY: 600000 2.7537 11.4483 9.1685 0.0000 -10472.7673 1381.8761 0.0000 0.0000 1720.1030 -7347.4176 296.4875 -9067.5206 -7338.4061 300.2440 -320.6937 -233.5493 30144.1948 -206.0646 -139.5954
ENERGY: 900000 3.1846 7.9296 6.7911 0.0000 -10616.0703 1422.8377 0.0000 0.0000 1781.8686 -7393.4587 307.1338 -9175.3273 -7343.4091 301.1934 -164.8320 -123.3955 29939.0812 -251.5461 -204.1938
ENERGY: 1200000 4.7801 7.0261 8.3171 0.0000 -10565.7859 1408.3091 0.0000 0.0000 1749.3478 -7388.0057 301.5283 -9137.3536 -7352.5071 300.6150 -196.5096 -158.2763 29848.1112 -212.9658 -161.8693
ENERGY: 1500000 1.5655 11.1967 7.0586 0.0000 -10577.0359 1401.4251 0.0000 0.0000 1748.4877 -7407.3022 301.3800 -9155.7900 -7360.6027 300.5779 -296.6980 -196.6905 29901.4348 -251.7991 -200.6651
TCL: Running FEP window  13: Lambda1 0.6    Lambda2 0.65   [dLambda 0.050000000000000044]
TCL: Setting parameter firsttimestep to 0
TCL: Setting parameter alchLambda to 0.6
Info: NONBONDED TABLE R-SQUARED SPACING: 0.0625
Info: NONBONDED TABLE SIZE: 705 POINTS
TCL: Setting parameter alchLambda2 to 0.65
Info: NONBONDED TABLE R-SQUARED SPACING: 0.0625
Info: NONBONDED TABLE SIZE: 705 POINTS
TCL: Running for 1500000 steps
ETITLE: TS BOND ANGLE DIHED IMPRP ELECT VDW BOUNDARY MISC KINETIC TOTAL TEMP POTENTIAL TOTALAVG TEMPAVG PRESSURE GPRESSURE VOLUME PRESSAVG GPRESSAVG
ENERGY: 0 1.5655 11.1967 7.0586 0.0000 -10577.5465 1401.6195 0.0000 0.0000 1747.5797 -7408.5264 301.2235 -9156.1061 -7408.5264 301.2235 -266.9968 -182.5779 29901.4348 -266.9968 -182.5779
ENERGY: 300000 1.9531 10.4648 7.6598 0.0000 -10575.6708 1418.3147 0.0000 0.0000 1726.9564 -7410.3220 297.6688 -9137.2784 -7399.6753 295.9966 181.5373 198.3995 29510.6746 12.9774 53.9403
ENERGY: 600000 3.4952 7.3574 7.7283 0.0000 -10548.6311 1426.4341 0.0000 0.0000 1799.1524 -7304.4637 310.1129 -9103.6161 -7370.2567 299.5391 123.6096 227.2082 30083.7817 -173.9590 -114.9117
ENERGY: 900000 2.2174 10.4392 5.6544 0.0000 -10482.1562 1398.1864 0.0000 0.0000 1761.9404 -7303.7184 303.6988 -9065.6588 -7376.5026 300.1232 61.0360 112.3799 30095.1790 -47.3504 17.1401
ENERGY: 1200000 2.8211 9.3159 5.9409 0.0000 -10521.8788 1378.4370 0.0000 0.0000 1700.4012 -7424.9628 293.0916 -9125.3640 -7383.6433 299.9388 -122.4428 -127.7036 29503.8090 -71.6684 -17.7092
ENERGY: 1500000 3.1320 14.6889 7.7077 0.0000 -10538.9406 1387.7555 0.0000 0.0000 1727.0785 -7398.5780 297.6898 -9125.6565 -7380.7719 300.1513 -241.5994 -153.9144 29956.4502 -105.6705 -47.1667
TCL: Running FEP window  14: Lambda1 0.65   Lambda2 0.7000000000000001 [dLambda 0.050000000000000044]
TCL: Setting parameter firsttimestep to 0
TCL: Setting parameter alchLambda to 0.65
Info: NONBONDED TABLE R-SQUARED SPACING: 0.0625
Info: NONBONDED TABLE SIZE: 705 POINTS
TCL: Setting parameter alchLambda2 to 0.7000000000000001
Info: NONBONDED TABLE R-SQUARED SPACING: 0.0625
Info: NONBONDED TABLE SIZE: 705 POINTS
TCL: Running for 1500000 steps
ETITLE: TS BOND ANGLE DIHED IMPRP ELECT VDW BOUNDARY MISC KINETIC TOTAL TEMP POTENTIAL TOTALAVG TEMPAVG PRESSURE GPRESSURE VOLUME PRESSAVG GPRESSAVG
ENERGY: 0 3.1320 14.6889 7.7077 0.0000 -10539.4390 1387.4672 0.0000 0.0000 1726.2370 -7400.2061 297.5448 -9126.4432 -7400.2061 297.5448 -242.1511 -146.7357 29956.4502 -242.1511 -146.7357
ENERGY: 300000 1.4181 11.8472 9.0915 0.0000 -10481.8253 1316.9014 0.0000 0.0000 1703.1579 -7439.4092 293.5667 -9142.5671 -7421.8552 293.6997 -942.9909 -870.5700 29911.4737 -493.7250 -408.1751
ENERGY: 600000 2.0963 7.8307 5.5648 0.0000 -10535.4448 1379.6266 0.0000 0.0000 1741.1665 -7399.1598 300.1181 -9140.3264 -7427.3017 296.1879 -241.0794 -172.5231 29641.4574 -482.7718 -421.7023
ENERGY: 900000 1.4048 10.7490 9.8867 0.0000 -10557.2169 1394.1952 0.0000 0.0000 1700.6795 -7440.3016 293.1395 -9140.9812 -7423.0196 296.2275 -255.2125 -194.9493 29879.5005 -488.7270 -425.4263
ENERGY: 1200000 2.8052 9.7773 6.9442 0.0000 -10483.2792 1400.2271 0.0000 0.0000 1732.3885 -7331.1369 298.6051 -9063.5254 -7413.9788 297.7210 -281.5393 -218.0143 30226.8119 -351.6759 -289.4417
ENERGY: 1500000 2.6708 8.8508 8.6811 0.0000 -10412.9837 1310.0018 0.0000 0.0000 1718.1208 -7364.6585 296.1458 -9082.7793 -7405.0695 298.0690 -832.1290 -765.1432 30320.5668 -322.0046 -256.6161
TCL: Running FEP window  15: Lambda1 0.7000000000000001 Lambda2 0.7500000000000001 [dLambda 0.050000000000000044]
TCL: Setting parameter firsttimestep to 0
TCL: Setting parameter alchLambda to 0.7000000000000001
Info: NONBONDED TABLE R-SQUARED SPACING: 0.0625
Info: NONBONDED TABLE SIZE: 705 POINTS
TCL: Setting parameter alchLambda2 to 0.7500000000000001
Info: NONBONDED TABLE R-SQUARED SPACING: 0.0625
Info: NONBONDED TABLE SIZE: 705 POINTS
TCL: Running for 1500000 steps
ETITLE: TS BOND ANGLE DIHED IMPRP ELECT VDW BOUNDARY MISC KINETIC TOTAL TEMP POTENTIAL TOTALAVG TEMPAVG PRESSURE GPRESSURE VOLUME PRESSAVG GPRESSAVG
ENERGY: 0 2.6708 8.8508 8.6811 0.0000 -10413.3607 1309.9793 0.0000 0.0000 1717.2487 -7365.9301 295.9955 -9083.1788 -7365.9301 295.9955 -831.0506 -757.3755 30320.5668 -831.0506 -757.3755
ENERGY: 300000 2.2243 17.1860 5.2488 0.0000 -10388.2853 1303.2048 0.0000 0.0000 1783.2364 -7277.1851 307.3695 -9060.4215 -7340.2028 302.2906 -695.8262 -594.0353 30009.1404 -200.9783 -123.3535
ENERGY: 600000 3.8715 11.2742 7.5062 0.0000 -10449.7285 1356.8190 0.0000 0.0000 1744.4472 -7325.8104 300.6836 -9070.2576 -7342.6052 301.5733 -436.8150 -346.6216 30360.3519 -161.1581 -104.9531
ENERGY: 900000 3.2399 11.0501 8.7984 0.0000 -10542.8811 1404.5695 0.0000 0.0000 1790.0138 -7325.2094 308.5377 -9115.2233 -7332.2682 302.5292 146.0702 211.8249 29497.0998 -116.6258 -58.2706
ENERGY: 1200000 1.9076 13.2548 6.2462 0.0000 -10652.8286 1488.8363 0.0000 0.0000 1778.7350 -7363.8488 306.5937 -9142.5838 -7347.5566 301.7994 876.2821 874.0147 29517.5632 -72.4509 -15.2507
ENERGY: 1500000 6.4704 8.1476 7.1465 0.0000 -10530.3876 1323.2377 0.0000 0.0000 1757.8777 -7427.5077 302.9986 -9185.3854 -7349.1361 302.0836 -913.1065 -893.1339 29350.0858 -104.8519 -44.5127
TCL: Running FEP window  16: Lambda1 0.7500000000000001 Lambda2 0.8000000000000002 [dLambda 0.050000000000000044]
TCL: Setting parameter firsttimestep to 0
TCL: Setting parameter alchLambda to 0.7500000000000001
Info: NONBONDED TABLE R-SQUARED SPACING: 0.0625
Info: NONBONDED TABLE SIZE: 705 POINTS
TCL: Setting parameter alchLambda2 to 0.8000000000000002
Info: NONBONDED TABLE R-SQUARED SPACING: 0.0625
Info: NONBONDED TABLE SIZE: 705 POINTS
TCL: Running for 1500000 steps
ETITLE: TS BOND ANGLE DIHED IMPRP ELECT VDW BOUNDARY MISC KINETIC TOTAL TEMP POTENTIAL TOTALAVG TEMPAVG PRESSURE GPRESSURE VOLUME PRESSAVG GPRESSAVG
ENERGY: 0 6.4704 8.1476 7.1465 0.0000 -10531.4595 1324.4185 0.0000 0.0000 1757.0020 -7428.2746 302.8476 -9185.2766 -7428.2746 302.8476 -951.7564 -867.2070 29350.0858 -951.7564 -867.2070
ENERGY: 300000 1.2580 9.9315 12.3777 0.0000 -10604.0353 1498.4705 0.0000 0.0000 1732.4810 -7349.5165 298.6210 -9081.9975 -7416.8656 296.8165 814.1274 906.6662 29850.9913 17.1164 91.5870
ENERGY: 600000 3.6200 12.5902 6.8423 0.0000 -10386.2418 1312.2312 0.0000 0.0000 1781.4081 -7269.5500 307.0544 -9050.9581 -7396.9007 299.5200 -538.3817 -491.8243 30217.6699 75.5381 140.4085
ENERGY: 900000 2.2300 9.4378 7.3933 0.0000 -10711.3034 1498.5130 0.0000 0.0000 1714.2371 -7479.4922 295.4764 -9193.7293 -7398.8334 298.9075 547.4701 559.4365 29726.8907 157.7032 215.8018
ENERGY: 1200000 2.3788 7.2727 10.5259 0.0000 -10429.4396 1359.0933 0.0000 0.0000 1739.8576 -7310.3114 299.8925 -9050.1689 -7394.6072 298.7744 -504.9562 -369.5292 30437.3597 -53.1647 5.9448
ENERGY: 1500000 1.8268 15.2615 7.2002 0.0000 -10653.1284 1428.9273 0.0000 0.0000 1808.1893 -7391.7232 311.6706 -9199.9125 -7393.2341 298.9815 139.8584 222.9069 29517.4080 -51.4432 13.6606
TCL: Running FEP window  17: Lambda1 0.8000000000000002 Lambda2 0.8500000000000002 [dLambda 0.050000000000000044]
TCL: Setting parameter firsttimestep to 0
TCL: Setting parameter alchLambda to 0.8000000000000002
Info: NONBONDED TABLE R-SQUARED SPACING: 0.0625
Info: NONBONDED TABLE SIZE: 705 POINTS
TCL: Setting parameter alchLambda2 to 0.8500000000000002
Info: NONBONDED TABLE R-SQUARED SPACING: 0.0625
Info: NONBONDED TABLE SIZE: 705 POINTS
TCL: Running for 1500000 steps
ETITLE: TS BOND ANGLE DIHED IMPRP ELECT VDW BOUNDARY MISC KINETIC TOTAL TEMP POTENTIAL TOTALAVG TEMPAVG PRESSURE GPRESSURE VOLUME PRESSAVG GPRESSAVG
ENERGY: 0 1.8268 15.2615 7.2002 0.0000 -10653.6009 1428.5352 0.0000 0.0000 1807.3183 -7393.4588 311.5204 -9200.7771 -7393.4588 311.5204 151.9087 230.1539 29517.4080 151.9087 230.1539
ENERGY: 300000 4.5773 9.9695 8.3169 0.0000 -10509.6362 1354.8829 0.0000 0.0000 1770.4271 -7361.4626 305.1616 -9131.8897 -7381.7213 303.9616 -516.9599 -448.9904 30078.0423 334.9128 426.4115
ENERGY: 600000 3.6458 7.9833 6.8890 0.0000 -10522.6111 1397.2005 0.0000 0.0000 1773.9647 -7332.9278 305.7714 -9106.8924 -7379.2929 302.4877 -390.4334 -358.7004 30704.7287 281.3830 373.8306
ENERGY: 900000 3.1422 13.1273 7.7746 0.0000 -10566.1296 1435.9968 0.0000 0.0000 1758.4519 -7347.6368 303.0975 -9106.0887 -7372.7260 301.4197 33.3569 45.8188 30124.0754 194.2437 266.8852
ENERGY: 1200000 2.8904 7.7780 6.9026 0.0000 -10550.7658 1386.7093 0.0000 0.0000 1775.3833 -7371.1022 306.0159 -9146.4855 -7376.2179 301.3758 -147.4478 -57.8578 29930.9018 232.4056 303.1460
ENERGY: 1500000 3.6686 8.6415 7.6901 0.0000 -10671.6129 1425.1710 0.0000 0.0000 1701.0363 -7525.4053 293.2010 -9226.4416 -7382.7630 301.4181 -35.6943 79.9964 29584.1980 225.6737 304.0345
TCL: Running FEP window  18: Lambda1 0.8500000000000002 Lambda2 0.9000000000000002 [dLambda 0.050000000000000044]
TCL: Setting parameter firsttimestep to 0
TCL: Setting parameter alchLambda to 0.8500000000000002
Info: NONBONDED TABLE R-SQUARED SPACING: 0.0625
Info: NONBONDED TABLE SIZE: 705 POINTS
TCL: Setting parameter alchLambda2 to 0.9000000000000002
Info: NONBONDED TABLE R-SQUARED SPACING: 0.0625
Info: NONBONDED TABLE SIZE: 705 POINTS
TCL: Running for 1500000 steps
ETITLE: TS BOND ANGLE DIHED IMPRP ELECT VDW BOUNDARY MISC KINETIC TOTAL TEMP POTENTIAL TOTALAVG TEMPAVG PRESSURE GPRESSURE VOLUME PRESSAVG GPRESSAVG
ENERGY: 0 3.6686 8.6415 7.6901 0.0000 -10672.3892 1425.5859 0.0000 0.0000 1700.1658 -7526.6373 293.0510 -9226.8031 -7526.6373 293.0510 8.5447 97.5548 29584.1980 8.5447 97.5548
ENERGY: 300000 2.6749 6.4730 6.9435 0.0000 -10585.6131 1450.3213 0.0000 0.0000 1801.0918 -7318.1086 310.4472 -9119.2004 -7391.8842 303.6769 468.2778 490.5662 29827.0519 -33.1375 40.7905
ENERGY: 600000 1.3320 11.5617 7.7841 0.0000 -10397.7134 1321.3354 0.0000 0.0000 1768.3065 -7287.3937 304.7961 -9055.7002 -7378.7423 302.1940 -483.0038 -361.5769 29800.3570 -53.0864 25.6709
ENERGY: 900000 6.4503 11.1690 6.7321 0.0000 -10571.0887 1333.5150 0.0000 0.0000 1720.7940 -7492.4283 296.6066 -9213.2223 -7387.5216 300.4332 -853.3228 -847.7184 30312.9425 -97.5052 -31.1166
ENERGY: 1200000 3.3813 9.9580 7.0945 0.0000 -10479.9413 1374.2644 0.0000 0.0000 1712.8798 -7372.3633 295.2424 -9085.2431 -7385.0945 298.8200 -181.5627 -159.2903 30151.7103 -120.9006 -55.5798
ENERGY: 1500000 1.1195 11.4644 9.5855 0.0000 -10622.1257 1491.4710 0.0000 0.0000 1754.2248 -7354.2604 302.3689 -9108.4852 -7381.9672 299.6485 816.3677 811.9306 29737.9402 -10.0393 44.9702
TCL: Running FEP window  19: Lambda1 0.9000000000000002 Lambda2 0.9500000000000003 [dLambda 0.050000000000000044]
TCL: Setting parameter firsttimestep to 0
TCL: Setting parameter alchLambda to 0.9000000000000002
Info: NONBONDED TABLE R-SQUARED SPACING: 0.0625
Info: NONBONDED TABLE SIZE: 705 POINTS
TCL: Setting parameter alchLambda2 to 0.9500000000000003
Info: NONBONDED TABLE R-SQUARED SPACING: 0.0625
Info: NONBONDED TABLE SIZE: 705 POINTS
TCL: Running for 1500000 steps
ETITLE: TS BOND ANGLE DIHED IMPRP ELECT VDW BOUNDARY MISC KINETIC TOTAL TEMP POTENTIAL TOTALAVG TEMPAVG PRESSURE GPRESSURE VOLUME PRESSAVG GPRESSAVG
ENERGY: 0 1.1195 11.4644 9.5855 0.0000 -10623.5564 1491.5878 0.0000 0.0000 1753.3735 -7356.4256 302.2222 -9109.7991 -7356.4256 302.2222 741.1867 826.3676 29737.9402 741.1867 826.3676
ENERGY: 300000 4.4725 8.0568 7.8502 0.0000 -10433.1350 1317.5332 0.0000 0.0000 1771.4959 -7323.7263 305.3459 -9095.2222 -7351.4094 300.0034 -728.0380 -682.0868 30115.8807 161.4900 241.5735
ENERGY: 600000 1.1975 9.6678 8.0169 0.0000 -10472.0142 1386.4101 0.0000 0.0000 1733.8059 -7332.9161 298.8494 -9066.7220 -7334.9391 301.9551 -145.0183 -56.8714 29981.5256 195.9233 261.7660
ENERGY: 900000 1.5823 13.1336 6.6022 0.0000 -10560.0517 1410.7635 0.0000 0.0000 1747.0488 -7380.9212 301.1320 -9127.9701 -7344.2700 302.2879 -100.4638 -102.7355 30285.1499 244.1519 303.6802
ENERGY: 1200000 2.3542 7.4272 10.4721 0.0000 -10576.9655 1390.0902 0.0000 0.0000 1727.2345 -7439.3873 297.7167 -9166.6218 -7365.2837 301.5053 -308.7399 -255.0953 30052.8758 100.2281 163.7318
ENERGY: 1500000 1.6409 9.3083 5.8897 0.0000 -10544.9863 1414.3978 0.0000 0.0000 1750.2800 -7363.4697 301.6890 -9113.7497 -7356.5973 302.3361 127.1325 139.9151 30207.1084 -8.2647 49.6666
TCL: Running FEP window  20: Lambda1 0.9500000000000003 Lambda2 1.0    [dLambda 0.04999999999999971]
TCL: Setting parameter firsttimestep to 0
TCL: Setting parameter alchLambda to 0.9500000000000003
Info: NONBONDED TABLE R-SQUARED SPACING: 0.0625
Info: NONBONDED TABLE SIZE: 705 POINTS
TCL: Setting parameter alchLambda2 to 1.0
Info: NONBONDED TABLE R-SQUARED SPACING: 0.0625
Info: NONBONDED TABLE SIZE: 705 POINTS
TCL: Running for 1500000 steps
ETITLE: TS BOND ANGLE DIHED IMPRP ELECT VDW BOUNDARY MISC KINETIC TOTAL TEMP POTENTIAL TOTALAVG TEMPAVG PRESSURE GPRESSURE VOLUME PRESSAVG GPRESSAVG
ENERGY: 0 1.6409 9.3083 5.8897 0.0000 -10545.7502 1414.5232 0.0000 0.0000 1749.4060 -7364.9822 301.5383 -9114.3882 -7364.9822 301.5383 65.4171 155.1829 30207.1084 65.4171 155.1829
ENERGY: 300000 0.7180 11.4345 7.0072 0.0000 -10592.4694 1429.4188 0.0000 0.0000 1687.6725 -7456.2184 290.8976 -9143.8909 -7371.3670 301.6105 -0.7210 84.6240 29834.7534 -83.0446 11.4497
ENERGY: 600000 2.3323 5.4376 7.2064 0.0000 -10543.6333 1407.1450 0.0000 0.0000 1729.0645 -7392.4476 298.0321 -9121.5121 -7387.4098 300.5741 -51.8695 34.2644 29949.8351 -218.5299 -126.6984
ENERGY: 900000 2.0832 12.4972 7.0709 0.0000 -10588.8010 1408.6966 0.0000 0.0000 1714.3892 -7444.0639 295.5026 -9158.4531 -7392.3319 299.1318 51.2766 88.6617 29737.9451 -85.2568 -8.2881
ENERGY: 1200000 2.1968 17.4976 6.9229 0.0000 -10663.4096 1396.4395 0.0000 0.0000 1759.8555 -7480.4972 303.3395 -9240.3528 -7391.1397 300.2958 -242.5924 -153.3357 29365.9862 -94.6844 -18.9112
ENERGY: 1500000 4.0378 12.8411 6.0804 0.0000 -10525.3852 1383.4448 0.0000 0.0000 1684.6772 -7434.3039 290.3813 -9118.9811 -7395.8989 298.9513 -427.6085 -340.6563 30195.1856 -66.1620 13.9640
TCL: Exiting due to exit command.
