Info: SIMULATION PARAMETERS:
Info: TIMESTEP               2
Info: NUMBER OF STEPS        0
Info: STEPS PER CYCLE        10
Info: PERIODIC CELL BASIS 1  30.6731 0 0
Info: PERIODIC CELL BASIS 2  0 31.9575 0
Info: PERIODIC CELL BASIS 3  0 0 31.3192
Info: PERIODIC CELL CENTER   0 0 0
Info: WRAPPING WATERS AROUND PERIODIC BOUNDARIES ON OUTPUT.
Info: WRAPPING ALL CLUSTERS AROUND PERIODIC BOUNDARIES ON OUTPUT.
Info: FIRST LDB TIMESTEP     50
Info: LAST LDB TIMESTEP     -1
Info: HOM BACKGROUND SCALING 1
Info: PME BACKGROUND SCALING 1
Info: MIN ATOMS PER PATCH    40
Info: EMPTY PATCH LOAD       40 ATOMS
Info: VELOCITY FILE          mobley_1352110_equil.vel
Info: CENTER OF MASS MOVING INITIALLY? NO
Info: DIELECTRIC             1
Info: EXCLUDE                SCALED ONE-FOUR
Info: 1-4 ELECTROSTATICS SCALED BY 0.833333
Info: MODIFIED 1-4 VDW PARAMETERS WILL BE USED
Info: DCD FILENAME           mobley_1352110_prod.dcd
Info: DCD FREQUENCY          100000
Info: DCD FIRST STEP         100000
Info: DCD FILE WILL CONTAIN UNIT CELL DATA
Info: XST FILENAME           mobley_1352110_prod.xst
Info: XST FREQUENCY          100000
Info: NO VELOCITY DCD OUTPUT
Info: NO FORCE DCD OUTPUT
Info: OUTPUT FILENAME        mobley_1352110_prod
Info: BINARY OUTPUT FILES WILL BE USED
Info: RESTART FILENAME       mobley_1352110_prod.restart
Info: RESTART FREQUENCY      100000
Info: BINARY RESTART FILES WILL BE USED
Info: CUTOFF                 9
Info: PAIRLIST DISTANCE      11
Info: PAIRLIST SHRINK RATE   0.01
Info: PAIRLIST GROW RATE     0.01
Info: PAIRLIST TRIGGER       0.3
Info: PAIRLISTS PER CYCLE    2
Info: PAIRLISTS ENABLED
Info: MARGIN                 2
Info: HYDROGEN GROUP CUTOFF  2.5
Info: PATCH DIMENSION        15.5
Info: ENERGY OUTPUT STEPS    100000
Info: ENERGY EVALUATION STEPS    100000
Info: OUTPUT ENERGY PRECISION 4
Info: CROSSTERM ENERGY INCLUDED IN DIHEDRAL
Info: TIMING OUTPUT STEPS    1000000
Info: PRESSURE OUTPUT STEPS  100000
Info: ALCHEMICAL FEP ON
Info: FEP CURRENT LAMBDA VALUE     0
Info: FEP COMPARISON LAMBDA VALUE  0.05
Info: FEP INTRA-ALCHEMICAL NON-BONDED INTERACTIONS WILL BE RETAINED
Info: FEP INTRA-ALCHEMICAL BONDED INTERACTIONS WILL BE RETAINED
Info: FEP VDW SHIFTING COEFFICIENT 5
Info: FEP ELEC. ACTIVE FOR ANNIHILATED PARTICLES BETWEEN LAMBDA = 0 AND LAMBDA = 0.5
Info: FEP ELEC. ACTIVE FOR EXNIHILATED PARTICLES BETWEEN LAMBDA = 0.5 AND LAMBDA = 1
Info: FEP VDW ACTIVE FOR ANNIHILATED PARTICLES BETWEEN LAMBDA = 0 AND LAMBDA = 1
Info: FEP VDW ACTIVE FOR EXNIHILATED PARTICLES BETWEEN LAMBDA = 0 AND LAMBDA = 1
Info: FEP BOND ACTIVE FOR ANNIHILATED PARTICLES BETWEEN LAMBDA = 1 AND LAMBDA = 1
Info: FEP BOND ACTIVE FOR EXNIHILATED PARTICLES BETWEEN LAMBDA = 0 AND LAMBDA = 0
Info: LANGEVIN DYNAMICS ACTIVE
Info: LANGEVIN TEMPERATURE   300
Info: LANGEVIN USING BBK INTEGRATOR
Info: LANGEVIN DAMPING COEFFICIENT IS 1 INVERSE PS
Info: LANGEVIN DYNAMICS APPLIED TO HYDROGENS
Info: LANGEVIN PISTON PRESSURE CONTROL ACTIVE
Info:        TARGET PRESSURE IS 1.01325 BAR
Info:     OSCILLATION PERIOD IS 50 FS
Info:             DECAY TIME IS 25 FS
Info:     PISTON TEMPERATURE IS 300 K
Info:       PRESSURE CONTROL IS GROUP-BASED
Info:    INITIAL STRAIN RATE IS -0.000284296 -0.000284296 -0.000284296
Info:       CELL FLUCTUATION IS ISOTROPIC
Info: PARTICLE MESH EWALD (PME) ACTIVE
Info: PME TOLERANCE               1e-06
Info: PME EWALD COEFFICIENT       0.348832
Info: PME INTERPOLATION ORDER     4
Info: PME GRID DIMENSIONS         32 32 32
Info: PME MAXIMUM GRID SPACING    1
Info: PME CALCULATION WILL BE PERFORMED ON GPU
Info: FULL ELECTROSTATIC EVALUATION FREQUENCY      2
Info: USING VERLET I (r-RESPA) MTS SCHEME.
Info: C1 SPLITTING OF LONG RANGE ELECTROSTATICS
Info: PLACING ATOMS IN PATCHES BY HYDROGEN GROUPS
Info: RIGID BONDS TO HYDROGEN : ALL
Info:         ERROR TOLERANCE : 1e-08
Info:          MAX ITERATIONS : 100
Info: RIGID WATER USING SETTLE ALGORITHM
Info: RANDOM NUMBER SEED     1744076353
Info: USE HYDROGEN BONDS?    NO
Info: Using AMBER format force field!
Info: AMBER PARM FILE        mobley_1352110.prmtop
Info: COORDINATE PDB         mobley_1352110.pdb
Info: Exclusions will be read from PARM file!
Info: SCNB (VDW SCALING)     2
Info: USING ARITHMETIC MEAN TO COMBINE L-J SIGMA PARAMETERS
Info: BINARY COORDINATES     mobley_1352110_equil.coor
Info: SUMMARY OF PARAMETERS:
Info: 10 BONDS
Info: 15 ANGLES
Info:   15 HARMONIC
Info:   0 COSINE-BASED
Info: 14 DIHEDRAL
Info: 0 IMPROPER
Info: 0 CROSSTERM
Info: 0 VDW
Info: 45 VDW_PAIRS
Info: 0 NBTHOLE_PAIRS
Info: To read alchdata from file: mobley_1352110.pdb
Info: To read alchflag data from column: 5
Info: STRUCTURE SUMMARY:
Info: 2947 ATOMS
Info: 2946 BONDS
Info: 61 ANGLES
Info: 85 DIHEDRALS
Info: 0 IMPROPERS
Info: 0 CROSSTERMS
Info: 3082 EXCLUSIONS
Info: 2934 RIGID BONDS
Info: ALCH: 0 ATOMS TO DISAPPEAR IN FINAL STATE
Info: ALCH: 34 ATOMS TO APPEAR IN FINAL STATE
Info: 5907 DEGREES OF FREEDOM
Info: 984 HYDROGEN GROUPS
Info: 4 ATOMS IN LARGEST HYDROGEN GROUP
Info: 984 MIGRATION GROUPS
Info: 4 ATOMS IN LARGEST MIGRATION GROUP
Info: TOTAL MASS = 17696.9 amu
Info: TOTAL CHARGE = 0.000200049 e
Info: MASS DENSITY = 0.957227 g/cm^3
Info: ATOM DENSITY = 0.095993 atoms/A^3
Info: ADDED 0 IMPLICIT EXCLUSIONS
Info: NONBONDED TABLE R-SQUARED SPACING: 0.0625
Info: NONBONDED TABLE SIZE: 705 POINTS
Info: REMOVING COM VELOCITY 0.0901833 0.142702 -0.159799
Info: Use 3D box decompostion in PME FFT.
Info: Updated CUDA force table with 4096 elements.
Info: Updated CUDA LJ table with 9 x 9 elements.
Info: Found 33 unique exclusion lists needing 140 bytes
TCL: Running for 1500000 steps
ETITLE: TS BOND ANGLE DIHED IMPRP ELECT VDW BOUNDARY MISC KINETIC TOTAL TEMP POTENTIAL TOTALAVG TEMPAVG PRESSURE GPRESSURE VOLUME PRESSAVG GPRESSAVG
ENERGY: 0 2.4446 20.5298 4.6954 0.0000 -10436.9481 1388.1107 0.0000 0.0000 1757.4778 -7263.6899 299.4424 -9021.1677 -7263.6899 299.4424 61.5297 134.8305 30700.1625 61.5297 134.8305
ENERGY: 300000 3.4508 16.2816 4.7690 0.0000 -10541.2669 1388.5372 0.0000 0.0000 1800.6477 -7327.5807 306.7977 -9128.2284 -7318.6321 303.8470 -449.7330 -352.1615 30132.0212 -499.8379 -419.8294
ENERGY: 600000 3.9713 13.0487 4.0564 0.0000 -10712.0700 1510.6667 0.0000 0.0000 1812.7599 -7367.5671 308.8614 -9180.3269 -7376.9021 302.4170 846.4689 874.6403 29655.9456 -7.0598 63.6245
ENERGY: 900000 4.2711 16.8979 5.8045 0.0000 -10614.5078 1447.9034 0.0000 0.0000 1766.7604 -7372.8704 301.0240 -9139.6308 -7385.0381 300.9617 -42.2923 36.8997 30040.4027 18.6716 84.6157
ENERGY: 1200000 5.7473 18.5091 5.5578 0.0000 -10673.2096 1468.4287 0.0000 0.0000 1789.1554 -7385.8114 304.8397 -9174.9667 -7384.7959 301.8175 169.6351 181.5740 30159.0898 -34.8982 22.7668
ENERGY: 1500000 6.6150 20.0629 7.5885 0.0000 -10781.4509 1545.6052 0.0000 0.0000 1751.5114 -7450.0678 298.4258 -9201.5792 -7390.4018 301.1125 933.0039 958.3922 29620.5295 28.3375 80.9416
TCL: Running FEP window   2: Lambda1 0.05   Lambda2 0.1    [dLambda 0.05  ]
TCL: Setting parameter firsttimestep to 0
TCL: Setting parameter alchLambda to 0.05
Info: NONBONDED TABLE R-SQUARED SPACING: 0.0625
Info: NONBONDED TABLE SIZE: 705 POINTS
TCL: Setting parameter alchLambda2 to 0.1
Info: NONBONDED TABLE R-SQUARED SPACING: 0.0625
Info: NONBONDED TABLE SIZE: 705 POINTS
TCL: Running for 1500000 steps
ETITLE: TS BOND ANGLE DIHED IMPRP ELECT VDW BOUNDARY MISC KINETIC TOTAL TEMP POTENTIAL TOTALAVG TEMPAVG PRESSURE GPRESSURE VOLUME PRESSAVG GPRESSAVG
ENERGY: 0 6.6150 20.0629 7.5885 0.0000 -10781.4508 1548.1852 0.0000 0.0000 1750.6463 -7448.3529 298.2784 -9198.9992 -7448.3529 298.2784 901.5628 970.3186 29620.5295 901.5628 970.3186
ENERGY: 300000 4.7435 13.6920 3.9303 0.0000 -10674.3253 1448.8255 0.0000 0.0000 1812.5026 -7390.6315 308.8176 -9203.1340 -7406.7173 300.8707 183.8314 233.5325 30006.5217 320.4121 390.1056
ENERGY: 600000 2.5553 11.7081 5.1320 0.0000 -10659.4191 1439.9397 0.0000 0.0000 1753.7529 -7446.3311 298.8077 -9200.0840 -7399.3343 299.8984 -35.2097 2.0271 30093.3266 248.2469 304.2270
ENERGY: 900000 0.8951 22.3549 4.4187 0.0000 -10664.2373 1424.4282 0.0000 0.0000 1773.3022 -7438.8382 302.1386 -9212.1404 -7410.8767 300.2608 -89.2382 -97.5489 30113.8900 356.0872 404.7386
ENERGY: 1200000 5.2911 15.5464 4.2121 0.0000 -10695.1603 1478.4788 0.0000 0.0000 1753.5109 -7438.1210 298.7665 -9191.6319 -7404.0050 300.9252 55.5021 157.7731 30296.8387 220.2545 271.0392
ENERGY: 1500000 6.7039 12.0102 4.6711 0.0000 -10664.4716 1448.4801 0.0000 0.0000 1784.7908 -7407.8155 304.0960 -9192.6063 -7402.8981 301.6824 -84.0607 45.5916 29924.8993 200.7835 254.4030
TCL: Running FEP window   3: Lambda1 0.1    Lambda2 0.15000000000000002 [dLambda 0.05000000000000002]
TCL: Setting parameter firsttimestep to 0
TCL: Setting parameter alchLambda to 0.1
Info: NONBONDED TABLE R-SQUARED SPACING: 0.0625
Info: NONBONDED TABLE SIZE: 705 POINTS
TCL: Setting parameter alchLambda2 to 0.15000000000000002
Info: NONBONDED TABLE R-SQUARED SPACING: 0.0625
Info: NONBONDED TABLE SIZE: 705 POINTS
TCL: Running for 1500000 steps
ETITLE: TS BOND ANGLE DIHED IMPRP ELECT VDW BOUNDARY MISC KINETIC TOTAL TEMP POTENTIAL TOTALAVG TEMPAVG PRESSURE GPRESSURE VOLUME PRESSAVG GPRESSAVG
ENERGY: 0 6.7039 12.0102 4.6711 0.0000 -10664.4729 1454.0586 0.0000 0.0000 1783.9088 -7403.1202 303.9457 -9187.0290 -7403.1202 303.9457 -27.5744 63.3763 29924.8993 -27.5744 63.3763
ENERGY: 300000 4.4220 13.6502 5.4266 0.0000 -10715.6024 1464.8188 0.0000 0.0000 1741.1830 -7486.1018 296.6660 -9227.2847 -7437.3484 297.8804 259.1455 374.4309 29723.1305 -208.3980 -114.4721
ENERGY: 600000 5.6143 16.1859 4.2293 0.0000 -10577.0824 1393.8789 0.0000 0.0000 1747.9846 -7409.1895 297.8249 -9157.1741 -7440.8929 297.6978 -320.2880 -281.0227 30080.8698 -217.7253 -146.5070
ENERGY: 900000 6.1043 13.0816 5.6183 0.0000 -10625.6721 1452.9928 0.0000 0.0000 1761.2542 -7386.6209 300.0858 -9147.8751 -7429.3159 296.9553 84.2172 205.7672 30040.0990 -146.2703 -63.2336
ENERGY: 1200000 3.3230 12.6517 6.4334 0.0000 -10522.4657 1377.1681 0.0000 0.0000 1708.8440 -7414.0455 291.1561 -9122.8894 -7426.0722 296.9304 -233.1434 -203.3051 29891.3708 -174.5741 -92.9083
ENERGY: 1500000 5.1214 15.5749 4.9246 0.0000 -10510.9467 1318.0962 0.0000 0.0000 1793.6306 -7373.5990 305.6022 -9167.2297 -7418.6637 298.5521 -917.6958 -773.0551 30084.5282 -178.8844 -91.1419
TCL: Running FEP window   4: Lambda1 0.15000000000000002 Lambda2 0.2    [dLambda 0.04999999999999999]
TCL: Setting parameter firsttimestep to 0
TCL: Setting parameter alchLambda to 0.15000000000000002
Info: NONBONDED TABLE R-SQUARED SPACING: 0.0625
Info: NONBONDED TABLE SIZE: 705 POINTS
TCL: Setting parameter alchLambda2 to 0.2
Info: NONBONDED TABLE R-SQUARED SPACING: 0.0625
Info: NONBONDED TABLE SIZE: 705 POINTS
TCL: Running for 1500000 steps
ETITLE: TS BOND ANGLE DIHED IMPRP ELECT VDW BOUNDARY MISC KINETIC TOTAL TEMP POTENTIAL TOTALAVG TEMPAVG PRESSURE GPRESSURE VOLUME PRESSAVG GPRESSAVG
ENERGY: 0 5.1214 15.5749 4.9246 0.0000 -10510.9458 1319.9346 0.0000 0.0000 1792.7617 -7372.6286 305.4541 -9165.3903 -7372.6286 305.4541 -854.8746 -762.9180 30084.5282 -854.8746 -762.9180
ENERGY: 300000 4.0474 15.5042 3.7042 0.0000 -10517.3173 1357.3855 0.0000 0.0000 1748.1250 -7388.5510 297.8488 -9136.6760 -7371.2049 301.4642 -546.8630 -489.8683 30130.4856 -523.1995 -443.5833
ENERGY: 600000 5.2888 16.2109 5.0811 0.0000 -10631.4119 1433.9487 0.0000 0.0000 1724.8896 -7445.9928 293.8899 -9170.8824 -7380.0624 301.6517 -159.2174 -71.8951 29993.2706 -367.6049 -305.6985
ENERGY: 900000 6.5394 18.5003 4.1667 0.0000 -10514.7097 1317.6324 0.0000 0.0000 1765.6496 -7402.2213 300.8347 -9167.8709 -7383.7394 302.9400 -1054.6537 -995.8799 30269.5790 -310.1205 -250.5323
ENERGY: 1200000 4.1524 16.9851 6.0779 0.0000 -10696.8326 1408.9998 0.0000 0.0000 1719.4945 -7541.1229 292.9707 -9260.6174 -7406.6862 301.8755 -567.8819 -500.4223 29877.0913 -283.9777 -228.8444
ENERGY: 1500000 6.3290 18.2729 8.1370 0.0000 -10562.8064 1381.5831 0.0000 0.0000 1810.9200 -7337.5645 308.5480 -9148.4845 -7402.5862 301.5881 -382.1726 -325.8821 30278.9737 -244.6181 -187.7777
TCL: Running FEP window   5: Lambda1 0.2    Lambda2 0.25   [dLambda 0.04999999999999999]
TCL: Setting parameter firsttimestep to 0
TCL: Setting parameter alchLambda to 0.2
Info: NONBONDED TABLE R-SQUARED SPACING: 0.0625
Info: NONBONDED TABLE SIZE: 705 POINTS
TCL: Setting parameter alchLambda2 to 0.25
Info: NONBONDED TABLE R-SQUARED SPACING: 0.0625
Info: NONBONDED TABLE SIZE: 705 POINTS
TCL: Running for 1500000 steps
ETITLE: TS BOND ANGLE DIHED IMPRP ELECT VDW BOUNDARY MISC KINETIC TOTAL TEMP POTENTIAL TOTALAVG TEMPAVG PRESSURE GPRESSURE VOLUME PRESSAVG GPRESSAVG
ENERGY: 0 6.3289 18.2729 8.1370 0.0000 -10562.8072 1381.1847 0.0000 0.0000 1810.0230 -7338.8606 308.3951 -9148.8836 -7338.8606 308.3951 -399.7226 -322.5044 30278.9737 -399.7226 -322.5044
ENERGY: 300000 5.6257 17.5273 3.9658 0.0000 -10713.1255 1425.8508 0.0000 0.0000 1808.9389 -7451.2169 308.2104 -9260.1559 -7388.2408 303.8480 -253.7825 -178.1098 29672.6445 -190.0240 -140.9262
ENERGY: 600000 4.6357 15.4224 5.9018 0.0000 -10722.3819 1504.6381 0.0000 0.0000 1694.9601 -7496.8238 288.7905 -9191.7839 -7427.2650 299.4158 509.6189 619.2749 30425.5005 34.2928 87.7373
ENERGY: 900000 3.8919 17.9028 6.0817 0.0000 -10581.0364 1444.8164 0.0000 0.0000 1805.5646 -7302.7790 307.6355 -9108.3435 -7408.5728 299.1476 -36.2871 54.8740 30584.3361 -49.4033 4.9860
ENERGY: 1200000 3.6310 18.2496 8.2581 0.0000 -10702.7355 1496.5411 0.0000 0.0000 1756.4510 -7419.6048 299.2674 -9176.0557 -7409.1374 299.2688 228.3182 361.3434 30200.1111 48.9208 111.8139
ENERGY: 1500000 4.7350 22.4121 6.0907 0.0000 -10588.6465 1391.5100 0.0000 0.0000 1792.7622 -7371.1365 305.4542 -9163.8987 -7406.2259 299.4232 -375.6810 -336.9424 30040.0616 -52.2444 6.9462
TCL: Running FEP window   6: Lambda1 0.25   Lambda2 0.3    [dLambda 0.04999999999999999]
TCL: Setting parameter firsttimestep to 0
TCL: Setting parameter alchLambda to 0.25
Info: NONBONDED TABLE R-SQUARED SPACING: 0.0625
Info: NONBONDED TABLE SIZE: 705 POINTS
TCL: Setting parameter alchLambda2 to 0.3
Info: NONBONDED TABLE R-SQUARED SPACING: 0.0625
Info: NONBONDED TABLE SIZE: 705 POINTS
TCL: Running for 1500000 steps
ETITLE: TS BOND ANGLE DIHED IMPRP ELECT VDW BOUNDARY MISC KINETIC TOTAL TEMP POTENTIAL TOTALAVG TEMPAVG PRESSURE GPRESSURE VOLUME PRESSAVG GPRESSAVG
ENERGY: 0 4.7350 22.4121 6.0907 0.0000 -10588.6466 1393.8438 0.0000 0.0000 1791.8798 -7369.6852 305.3038 -9161.5650 -7369.6852 305.3038 -413.7628 -322.5361 30040.0616 -413.7628 -322.5361
ENERGY: 300000 5.5842 14.0403 6.9325 0.0000 -10597.1788 1426.5002 0.0000 0.0000 1761.2387 -7382.8829 300.0832 -9144.1216 -7361.6475 300.3006 9.7788 97.5733 29863.1759 -27.2571 41.7213
ENERGY: 600000 3.8690 14.9210 4.6976 0.0000 -10670.0922 1459.5071 0.0000 0.0000 1728.6540 -7458.4434 294.5313 -9187.0974 -7378.2019 300.3923 -34.8778 -34.4471 30409.7970 10.9384 60.4596
ENERGY: 900000 2.6392 22.5442 6.2106 0.0000 -10667.5599 1485.9864 0.0000 0.0000 1775.7651 -7374.4144 302.5582 -9150.1795 -7383.6180 300.8513 696.7655 768.7650 29714.8062 159.0335 212.8146
ENERGY: 1200000 3.1708 14.2404 7.4356 0.0000 -10593.1876 1387.6826 0.0000 0.0000 1708.5641 -7472.0941 291.1084 -9180.6583 -7383.9760 300.5491 -298.6684 -243.0424 30175.1722 95.9760 144.5827
ENERGY: 1500000 3.9078 20.3056 5.1649 0.0000 -10611.0560 1375.0886 0.0000 0.0000 1763.8342 -7442.7550 300.5254 -9206.5892 -7388.6283 301.0931 -654.0556 -606.1056 30465.1366 22.5193 73.5922
TCL: Running FEP window   7: Lambda1 0.3    Lambda2 0.35   [dLambda 0.04999999999999999]
TCL: Setting parameter firsttimestep to 0
TCL: Setting parameter alchLambda to 0.3
Info: NONBONDED TABLE R-SQUARED SPACING: 0.0625
Info: NONBONDED TABLE SIZE: 705 POINTS
TCL: Setting parameter alchLambda2 to 0.35
Info: NONBONDED TABLE R-SQUARED SPACING: 0.0625
Info: NONBONDED TABLE SIZE: 705 POINTS
TCL: Running for 1500000 steps
ETITLE: TS BOND ANGLE DIHED IMPRP ELECT VDW BOUNDARY MISC KINETIC TOTAL TEMP POTENTIAL TOTALAVG TEMPAVG PRESSURE GPRESSURE VOLUME PRESSAVG GPRESSAVG
ENERGY: 0 3.9078 20.3056 5.1649 0.0000 -10611.0564 1374.5538 0.0000 0.0000 1762.9672 -7444.1572 300.3777 -9207.1243 -7444.1572 300.3777 -693.8774 -601.4193 30465.1366 -693.8774 -601.4193
ENERGY: 300000 4.8344 13.4663 4.4225 0.0000 -10610.6918 1445.8462 0.0000 0.0000 1792.6710 -7349.4515 305.4387 -9142.1224 -7411.9126 299.7907 82.6358 127.4003 30539.4363 -71.6119 2.6873
ENERGY: 600000 5.7968 16.6497 6.5760 0.0000 -10585.4358 1490.2878 0.0000 0.0000 1770.8810 -7295.2445 301.7260 -9066.1255 -7394.8405 299.3708 834.0803 844.7794 30446.2512 -123.8773 -55.1337
ENERGY: 900000 2.0753 15.7882 5.4311 0.0000 -10690.5642 1429.3349 0.0000 0.0000 1788.2521 -7449.6825 304.6858 -9237.9346 -7400.7122 300.4634 16.2705 81.9892 29930.7862 -151.4766 -88.1044
ENERGY: 1200000 4.0472 11.0448 5.4309 0.0000 -10674.4853 1444.1778 0.0000 0.0000 1733.8906 -7475.8940 295.4235 -9209.7846 -7414.1305 299.6875 -287.4741 -288.0814 30379.3856 -221.6105 -170.0809
ENERGY: 1500000 3.1328 12.6604 5.9532 0.0000 -10530.7032 1355.9310 0.0000 0.0000 1760.8003 -7392.2256 300.0085 -9153.0259 -7424.8130 298.7035 -387.3264 -361.2590 30043.9899 -173.5668 -123.1715
TCL: Running FEP window   8: Lambda1 0.35   Lambda2 0.39999999999999997 [dLambda 0.04999999999999999]
TCL: Setting parameter firsttimestep to 0
TCL: Setting parameter alchLambda to 0.35
Info: NONBONDED TABLE R-SQUARED SPACING: 0.0625
Info: NONBONDED TABLE SIZE: 705 POINTS
TCL: Setting parameter alchLambda2 to 0.39999999999999997
Info: NONBONDED TABLE R-SQUARED SPACING: 0.0625
Info: NONBONDED TABLE SIZE: 705 POINTS
TCL: Running for 1500000 steps
ETITLE: TS BOND ANGLE DIHED IMPRP ELECT VDW BOUNDARY MISC KINETIC TOTAL TEMP POTENTIAL TOTALAVG TEMPAVG PRESSURE GPRESSURE VOLUME PRESSAVG GPRESSAVG
ENERGY: 0 3.1328 12.6604 5.9532 0.0000 -10530.7034 1356.9876 0.0000 0.0000 1759.8940 -7392.0755 299.8540 -9151.9695 -7392.0755 299.8540 -434.4408 -341.5892 30043.9899 -434.4408 -341.5892
ENERGY: 300000 4.4750 12.8363 6.2279 0.0000 -10482.9169 1315.8726 0.0000 0.0000 1761.6352 -7381.8698 300.1507 -9143.5050 -7436.6750 296.6817 -954.6877 -890.2842 30618.6511 -342.8251 -308.7116
ENERGY: 600000 3.0326 10.8319 5.2778 0.0000 -10567.9788 1369.0213 0.0000 0.0000 1785.2661 -7394.5491 304.1770 -9179.8152 -7411.2882 297.5980 -435.2941 -416.5284 30276.1618 -210.6212 -162.5269
ENERGY: 900000 4.8738 17.7393 8.0760 0.0000 -10622.2223 1465.6642 0.0000 0.0000 1769.3622 -7356.5069 301.4673 -9125.8691 -7401.4069 299.3133 349.4404 433.6501 30249.7411 -141.9305 -94.5388
ENERGY: 1200000 2.7065 11.0173 4.7055 0.0000 -10755.9035 1499.1953 0.0000 0.0000 1749.2611 -7489.0179 298.0424 -9238.2790 -7412.5363 299.3521 376.7368 477.8801 30108.4188 -43.5854 12.8327
ENERGY: 1500000 2.5001 12.5625 4.1178 0.0000 -10604.8922 1442.7146 0.0000 0.0000 1734.4283 -7408.5691 295.5152 -9142.9973 -7406.4845 299.6414 136.3436 253.7671 29959.9167 0.1227 64.1414
TCL: Running FEP window   9: Lambda1 0.39999999999999997 Lambda2 0.44999999999999996 [dLambda 0.04999999999999999]
TCL: Setting parameter firsttimestep to 0
TCL: Setting parameter alchLambda to 0.39999999999999997
Info: NONBONDED TABLE R-SQUARED SPACING: 0.0625
Info: NONBONDED TABLE SIZE: 705 POINTS
TCL: Setting parameter alchLambda2 to 0.44999999999999996
Info: NONBONDED TABLE R-SQUARED SPACING: 0.0625
Info: NONBONDED TABLE SIZE: 705 POINTS
TCL: Running for 1500000 steps
ETITLE: TS BOND ANGLE DIHED IMPRP ELECT VDW BOUNDARY MISC KINETIC TOTAL TEMP POTENTIAL TOTALAVG TEMPAVG PRESSURE GPRESSURE VOLUME PRESSAVG GPRESSAVG
ENERGY: 0 2.5001 12.5625 4.1178 0.0000 -10604.8930 1443.3193 0.0000 0.0000 1733.4981 -7408.8953 295.3567 -9142.3934 -7408.8953 295.3567 171.5500 264.4040 29959.9167 171.5500 264.4040
ENERGY: 300000 7.0043 17.3619 5.7012 0.0000 -10597.7714 1404.1837 0.0000 0.0000 1729.6940 -7433.8263 294.7085 -9163.5203 -7432.6019 295.9588 -301.1507 -264.8295 30250.8185 -253.2608 -168.7886
ENERGY: 600000 3.0288 19.9639 4.6491 0.0000 -10774.9817 1519.9497 0.0000 0.0000 1737.2766 -7490.1136 296.0005 -9227.3902 -7416.8928 299.1770 663.0418 717.5302 29828.3134 -1.7600 76.6364
ENERGY: 900000 4.3342 16.5120 6.1460 0.0000 -10702.8413 1438.5013 0.0000 0.0000 1827.9892 -7409.3586 311.4562 -9237.3478 -7411.3989 299.6089 41.8703 127.6724 29930.3871 63.1235 138.0947
ENERGY: 1200000 4.4906 18.6073 5.0590 0.0000 -10590.1774 1366.9801 0.0000 0.0000 1782.2202 -7412.8202 303.6580 -9195.0404 -7410.8595 300.6748 -803.4002 -740.6100 30517.8133 11.8772 83.9585
ENERGY: 1500000 2.1167 12.2523 6.4035 0.0000 -10551.0838 1394.6650 0.0000 0.0000 1770.5057 -7365.1405 301.6621 -9135.6463 -7402.2880 300.6049 -225.4073 -160.0899 30534.4701 -16.9970 49.8308
TCL: Running FEP window  10: Lambda1 0.44999999999999996 Lambda2 0.49999999999999994 [dLambda 0.04999999999999999]
TCL: Setting parameter firsttimestep to 0
TCL: Setting parameter alchLambda to 0.44999999999999996
Info: NONBONDED TABLE R-SQUARED SPACING: 0.0625
Info: NONBONDED TABLE SIZE: 705 POINTS
TCL: Setting parameter alchLambda2 to 0.49999999999999994
Info: NONBONDED TABLE R-SQUARED SPACING: 0.0625
Info: NONBONDED TABLE SIZE: 705 POINTS
TCL: Running for 1500000 steps
ETITLE: TS BOND ANGLE DIHED IMPRP ELECT VDW BOUNDARY MISC KINETIC TOTAL TEMP POTENTIAL TOTALAVG TEMPAVG PRESSURE GPRESSURE VOLUME PRESSAVG GPRESSAVG
ENERGY: 0 2.1167 12.2523 6.4035 0.0000 -10551.0829 1393.8424 0.0000 0.0000 1769.6814 -7366.7866 301.5217 -9136.4680 -7366.7866 301.5217 -248.1817 -159.5011 30534.4701 -248.1817 -159.5011
ENERGY: 300000 1.7980 17.9496 5.6622 0.0000 -10570.8425 1382.2782 0.0000 0.0000 1734.4506 -7428.7038 295.5190 -9163.1544 -7432.0171 298.4842 -83.1504 -3.0876 30002.4786 -17.3719 66.6714
ENERGY: 600000 2.1994 19.7241 7.1349 0.0000 -10688.0179 1477.1854 0.0000 0.0000 1798.9904 -7382.7836 306.5154 -9181.7741 -7428.1970 299.9712 365.0453 430.2083 30328.2191 -127.5678 -62.6310
ENERGY: 900000 5.0656 12.2029 3.2382 0.0000 -10686.0402 1491.5731 0.0000 0.0000 1782.6312 -7391.3293 303.7281 -9173.9605 -7433.3984 299.8477 281.2122 424.1337 30247.6357 -41.1152 38.7467
ENERGY: 1200000 3.8392 15.7308 9.2613 0.0000 -10525.8164 1387.7788 0.0000 0.0000 1693.6340 -7415.5723 288.5645 -9109.2063 -7432.8345 298.5846 12.8378 108.0178 30118.8519 -12.4827 60.7867
ENERGY: 1500000 3.5537 20.3826 3.5681 0.0000 -10688.7751 1434.2179 0.0000 0.0000 1749.0216 -7478.0312 298.0016 -9227.0527 -7433.4174 299.1245 190.7013 265.0815 29617.8743 66.5778 137.5927
TCL: Running FEP window  11: Lambda1 0.49999999999999994 Lambda2 0.5499999999999999 [dLambda 0.04999999999999999]
TCL: Setting parameter firsttimestep to 0
TCL: Setting parameter alchLambda to 0.49999999999999994
Info: NONBONDED TABLE R-SQUARED SPACING: 0.0625
Info: NONBONDED TABLE SIZE: 705 POINTS
TCL: Setting parameter alchLambda2 to 0.5499999999999999
Info: NONBONDED TABLE R-SQUARED SPACING: 0.0625
Info: NONBONDED TABLE SIZE: 705 POINTS
TCL: Running for 1500000 steps
ETITLE: TS BOND ANGLE DIHED IMPRP ELECT VDW BOUNDARY MISC KINETIC TOTAL TEMP POTENTIAL TOTALAVG TEMPAVG PRESSURE GPRESSURE VOLUME PRESSAVG GPRESSAVG
ENERGY: 0 3.5537 20.3826 3.5681 0.0000 -10688.7752 1435.1227 0.0000 0.0000 1748.1252 -7478.0228 297.8489 -9226.1480 -7478.0228 297.8489 200.1773 284.3102 29617.8743 200.1773 284.3102
ENERGY: 300000 5.8681 13.4902 6.0886 0.0000 -10472.3792 1385.0569 0.0000 0.0000 1752.5216 -7309.3540 298.5979 -9061.8755 -7399.0204 300.1650 -218.4936 -176.4486 30449.8308 66.7100 127.4878
ENERGY: 600000 6.8804 17.0550 5.1227 0.0000 -10537.0335 1374.1092 0.0000 0.0000 1783.9615 -7349.9046 303.9547 -9133.8662 -7394.0709 300.7672 -361.3095 -328.0821 30170.9868 195.8153 244.6826
ENERGY: 900000 3.6413 12.9674 6.0515 0.0000 -10751.0418 1507.7730 0.0000 0.0000 1759.2921 -7461.3165 299.7515 -9220.6086 -7399.1406 300.6919 656.7265 767.0239 29722.1233 155.3163 217.1232
ENERGY: 1200000 3.5127 15.5035 2.8536 0.0000 -10340.9562 1276.6104 0.0000 0.0000 1810.4850 -7231.9911 308.4738 -9042.4761 -7390.1904 301.6666 -876.0899 -735.0056 30397.9722 155.5369 221.6773
ENERGY: 1500000 2.3613 16.0567 6.6411 0.0000 -10709.9819 1487.2391 0.0000 0.0000 1744.0626 -7453.6212 297.1567 -9197.6837 -7404.2167 300.9803 494.5248 568.5331 29940.0961 172.6112 237.2215
TCL: Running FEP window  12: Lambda1 0.5499999999999999 Lambda2 0.6    [dLambda 0.050000000000000044]
TCL: Setting parameter firsttimestep to 0
TCL: Setting parameter alchLambda to 0.5499999999999999
Info: NONBONDED TABLE R-SQUARED SPACING: 0.0625
Info: NONBONDED TABLE SIZE: 705 POINTS
TCL: Setting parameter alchLambda2 to 0.6
Info: NONBONDED TABLE R-SQUARED SPACING: 0.0625
Info: NONBONDED TABLE SIZE: 705 POINTS
TCL: Running for 1500000 steps
ETITLE: TS BOND ANGLE DIHED IMPRP ELECT VDW BOUNDARY MISC KINETIC TOTAL TEMP POTENTIAL TOTALAVG TEMPAVG PRESSURE GPRESSURE VOLUME PRESSAVG GPRESSAVG
ENERGY: 0 2.3613 16.0567 6.6411 0.0000 -10710.3205 1487.2083 0.0000 0.0000 1743.1980 -7454.8551 297.0094 -9198.0530 -7454.8551 297.0094 478.5734 580.8076 29940.0961 478.5734 580.8076
ENERGY: 300000 2.1242 13.7155 8.1562 0.0000 -10764.8455 1525.3363 0.0000 0.0000 1778.1198 -7437.3934 302.9594 -9215.5132 -7411.6768 302.3853 737.6011 783.2424 30142.7033 288.7284 357.7461
ENERGY: 600000 3.9288 14.4285 4.5157 0.0000 -10747.1260 1545.3888 0.0000 0.0000 1781.1066 -7397.7575 303.4683 -9178.8641 -7403.4941 302.3648 665.0543 755.8749 30368.9212 27.0091 102.1155
ENERGY: 900000 4.4971 8.1986 5.8983 0.0000 -10591.6678 1445.1922 0.0000 0.0000 1791.7529 -7336.1287 305.2822 -9127.8816 -7388.3469 302.3701 54.5990 121.8012 30297.0503 -30.7986 36.4973
ENERGY: 1200000 3.5831 11.5221 3.6920 0.0000 -10679.1536 1411.2578 0.0000 0.0000 1719.8111 -7529.2874 293.0247 -9249.0985 -7403.7248 301.2863 -228.0716 -107.4586 29821.4107 -34.4059 40.9223
ENERGY: 1500000 4.8228 23.2920 3.9417 0.0000 -10563.9389 1382.7278 0.0000 0.0000 1717.3537 -7431.8009 292.6060 -9149.1546 -7403.2062 300.1137 -461.6490 -428.7908 30390.0161 -45.6331 23.8642
TCL: Running FEP window  13: Lambda1 0.6    Lambda2 0.65   [dLambda 0.050000000000000044]
TCL: Setting parameter firsttimestep to 0
TCL: Setting parameter alchLambda to 0.6
Info: NONBONDED TABLE R-SQUARED SPACING: 0.0625
Info: NONBONDED TABLE SIZE: 705 POINTS
TCL: Setting parameter alchLambda2 to 0.65
Info: NONBONDED TABLE R-SQUARED SPACING: 0.0625
Info: NONBONDED TABLE SIZE: 705 POINTS
TCL: Running for 1500000 steps
ETITLE: TS BOND ANGLE DIHED IMPRP ELECT VDW BOUNDARY MISC KINETIC TOTAL TEMP POTENTIAL TOTALAVG TEMPAVG PRESSURE GPRESSURE VOLUME PRESSAVG GPRESSAVG
ENERGY: 0 4.8228 23.2920 3.9417 0.0000 -10564.8216 1382.4317 0.0000 0.0000 1716.4760 -7433.8574 292.4564 -9150.3334 -7433.8574 292.4564 -500.8394 -419.8833 30390.0161 -500.8394 -419.8833
ENERGY: 300000 2.4038 21.0490 5.1128 0.0000 -10627.5158 1374.7690 0.0000 0.0000 1790.8784 -7433.3029 305.1332 -9224.1813 -7477.1555 297.4316 -346.0767 -320.3817 30066.6895 -306.9300 -267.3051
ENERGY: 600000 2.1953 14.4490 5.6162 0.0000 -10704.6929 1481.6070 0.0000 0.0000 1743.7084 -7457.1170 297.0963 -9200.8254 -7453.3309 298.5343 511.4533 551.3979 30042.1819 -183.0541 -138.6010
ENERGY: 900000 3.1550 22.6499 5.5946 0.0000 -10559.7119 1402.3723 0.0000 0.0000 1814.8207 -7311.1193 309.2126 -9125.9400 -7423.4427 300.0260 -1.6864 39.8990 30416.4795 -194.8534 -149.8924
ENERGY: 1200000 3.2762 18.0128 8.4162 0.0000 -10609.8837 1412.0831 0.0000 0.0000 1700.5924 -7467.5029 289.7501 -9168.0954 -7428.0017 299.2087 -201.9860 -69.3281 30167.5285 -127.2557 -71.6943
ENERGY: 1500000 3.0516 18.9440 5.9321 0.0000 -10638.3747 1410.3115 0.0000 0.0000 1784.2440 -7415.8915 304.0029 -9200.1355 -7421.8687 299.9197 -314.0875 -252.3038 30358.5463 -37.5790 17.1769
TCL: Running FEP window  14: Lambda1 0.65   Lambda2 0.7000000000000001 [dLambda 0.050000000000000044]
TCL: Setting parameter firsttimestep to 0
TCL: Setting parameter alchLambda to 0.65
Info: NONBONDED TABLE R-SQUARED SPACING: 0.0625
Info: NONBONDED TABLE SIZE: 705 POINTS
TCL: Setting parameter alchLambda2 to 0.7000000000000001
Info: NONBONDED TABLE R-SQUARED SPACING: 0.0625
Info: NONBONDED TABLE SIZE: 705 POINTS
TCL: Running for 1500000 steps
ETITLE: TS BOND ANGLE DIHED IMPRP ELECT VDW BOUNDARY MISC KINETIC TOTAL TEMP POTENTIAL TOTALAVG TEMPAVG PRESSURE GPRESSURE VOLUME PRESSAVG GPRESSAVG
ENERGY: 0 3.0516 18.9440 5.9321 0.0000 -10638.0391 1410.1064 0.0000 0.0000 1783.3821 -7416.6230 303.8560 -9200.0051 -7416.6230 303.8560 -326.0227 -237.4847 30358.5463 -326.0227 -237.4847
ENERGY: 300000 3.5914 21.3827 8.8487 0.0000 -10793.4331 1524.3968 0.0000 0.0000 1760.2125 -7475.0010 299.9083 -9235.2135 -7464.3815 296.6944 733.3192 741.1825 29940.3032 -225.2025 -186.8728
ENERGY: 600000 6.0871 13.8635 3.3333 0.0000 -10605.1213 1390.9475 0.0000 0.0000 1768.3520 -7422.5378 301.2951 -9190.8898 -7429.4249 298.4511 -374.9154 -304.4180 30333.7549 -100.0787 -63.6770
ENERGY: 900000 4.2663 17.7043 6.7235 0.0000 -10706.6682 1493.5558 0.0000 0.0000 1750.3332 -7434.0850 298.2251 -9184.4182 -7422.8485 298.5528 523.5076 515.4930 30441.9253 -5.3184 21.6192
ENERGY: 1200000 2.6567 9.5706 4.2635 0.0000 -10617.4239 1420.6104 0.0000 0.0000 1721.8933 -7458.4294 293.3794 -9180.3227 -7424.9006 297.4911 114.1459 220.0707 30110.8036 -138.0141 -101.8837
ENERGY: 1500000 4.6348 17.2344 4.8594 0.0000 -10682.1427 1472.5179 0.0000 0.0000 1838.8344 -7344.0618 313.3041 -9182.8962 -7422.9615 298.6938 413.0199 490.4182 30045.9619 -164.3252 -120.1449
TCL: Running FEP window  15: Lambda1 0.7000000000000001 Lambda2 0.7500000000000001 [dLambda 0.050000000000000044]
TCL: Setting parameter firsttimestep to 0
TCL: Setting parameter alchLambda to 0.7000000000000001
Info: NONBONDED TABLE R-SQUARED SPACING: 0.0625
Info: NONBONDED TABLE SIZE: 705 POINTS
TCL: Setting parameter alchLambda2 to 0.7500000000000001
Info: NONBONDED TABLE R-SQUARED SPACING: 0.0625
Info: NONBONDED TABLE SIZE: 705 POINTS
TCL: Running for 1500000 steps
ETITLE: TS BOND ANGLE DIHED IMPRP ELECT VDW BOUNDARY MISC KINETIC TOTAL TEMP POTENTIAL TOTALAVG TEMPAVG PRESSURE GPRESSURE VOLUME PRESSAVG GPRESSAVG
ENERGY: 0 4.6348 17.2344 4.8594 0.0000 -10683.4794 1473.4656 0.0000 0.0000 1837.9594 -7345.3258 313.1550 -9183.2851 -7345.3258 313.1550 429.4144 513.5826 30045.9619 429.4144 513.5826
ENERGY: 300000 6.5098 15.6079 4.6315 0.0000 -10615.7517 1463.2468 0.0000 0.0000 1753.8196 -7371.9361 298.8191 -9125.7557 -7366.7037 303.4551 427.8374 595.2363 29707.8304 -111.8279 8.7095
ENERGY: 600000 5.3741 12.0990 6.8312 0.0000 -10623.0685 1437.3788 0.0000 0.0000 1794.1682 -7367.2173 305.6938 -9161.3855 -7385.8198 302.7368 -68.5264 -57.1614 30853.3812 -90.9768 -11.5512
ENERGY: 900000 2.4547 18.7080 5.2905 0.0000 -10652.0209 1470.6268 0.0000 0.0000 1709.2650 -7445.6759 291.2278 -9154.9409 -7377.6586 302.5465 140.5986 262.5034 30354.4172 -116.9162 -31.7462
ENERGY: 1200000 4.1905 12.4715 5.8474 0.0000 -10582.6276 1412.5622 0.0000 0.0000 1736.2917 -7411.2642 295.8327 -9147.5560 -7378.2217 301.9156 168.4307 219.4267 30030.5328 46.4049 130.3950
ENERGY: 1500000 2.9135 14.1031 3.8759 0.0000 -10606.5357 1474.1895 0.0000 0.0000 1790.8521 -7320.6016 305.1288 -9111.4537 -7387.5213 301.4744 553.3873 615.4977 30442.9981 27.3627 105.3376
TCL: Running FEP window  16: Lambda1 0.7500000000000001 Lambda2 0.8000000000000002 [dLambda 0.050000000000000044]
TCL: Setting parameter firsttimestep to 0
TCL: Setting parameter alchLambda to 0.7500000000000001
Info: NONBONDED TABLE R-SQUARED SPACING: 0.0625
Info: NONBONDED TABLE SIZE: 705 POINTS
TCL: Setting parameter alchLambda2 to 0.8000000000000002
Info: NONBONDED TABLE R-SQUARED SPACING: 0.0625
Info: NONBONDED TABLE SIZE: 705 POINTS
TCL: Running for 1500000 steps
ETITLE: TS BOND ANGLE DIHED IMPRP ELECT VDW BOUNDARY MISC KINETIC TOTAL TEMP POTENTIAL TOTALAVG TEMPAVG PRESSURE GPRESSURE VOLUME PRESSAVG GPRESSAVG
ENERGY: 0 2.9135 14.1031 3.8759 0.0000 -10607.5923 1473.6881 0.0000 0.0000 1790.0113 -7323.0004 304.9855 -9113.0117 -7323.0004 304.9855 545.6646 626.4001 30442.9981 545.6646 626.4001
ENERGY: 300000 4.8671 14.1431 6.2516 0.0000 -10476.4918 1291.0694 0.0000 0.0000 1723.6198 -7436.5407 293.6736 -9160.1606 -7345.9886 304.6596 -1185.7838 -1066.1104 30489.9721 -83.7906 -10.3959
ENERGY: 600000 3.4276 13.8645 4.4505 0.0000 -10675.7521 1473.3014 0.0000 0.0000 1816.5835 -7364.1245 309.5129 -9180.7080 -7367.9438 304.4795 452.6532 488.1738 30461.5959 160.9456 220.0134
ENERGY: 900000 3.2068 19.4537 5.5023 0.0000 -10583.2497 1429.9276 0.0000 0.0000 1805.6755 -7319.4839 307.6544 -9125.1594 -7362.7690 304.6046 267.2165 274.4910 30380.8044 127.7115 184.4769
ENERGY: 1200000 4.7632 14.4936 5.5422 0.0000 -10594.6974 1364.3690 0.0000 0.0000 1761.2695 -7444.2599 300.0884 -9205.5294 -7384.4145 303.0207 -633.5157 -556.8193 30323.6004 -13.6556 44.4905
ENERGY: 1500000 8.9440 16.0760 4.5384 0.0000 -10645.2198 1430.4575 0.0000 0.0000 1660.7367 -7524.4672 282.9595 -9185.2039 -7399.0331 300.7065 -223.3345 -132.7813 30437.7210 30.9251 87.9981
TCL: Running FEP window  17: Lambda1 0.8000000000000002 Lambda2 0.8500000000000002 [dLambda 0.050000000000000044]
TCL: Setting parameter firsttimestep to 0
TCL: Setting parameter alchLambda to 0.8000000000000002
Info: NONBONDED TABLE R-SQUARED SPACING: 0.0625
Info: NONBONDED TABLE SIZE: 705 POINTS
TCL: Setting parameter alchLambda2 to 0.8500000000000002
Info: NONBONDED TABLE R-SQUARED SPACING: 0.0625
Info: NONBONDED TABLE SIZE: 705 POINTS
TCL: Running for 1500000 steps
ETITLE: TS BOND ANGLE DIHED IMPRP ELECT VDW BOUNDARY MISC KINETIC TOTAL TEMP POTENTIAL TOTALAVG TEMPAVG PRESSURE GPRESSURE VOLUME PRESSAVG GPRESSAVG
ENERGY: 0 8.9440 16.0760 4.5384 0.0000 -10646.7740 1432.2795 0.0000 0.0000 1659.8470 -7525.0892 282.8078 -9184.9361 -7525.0892 282.8078 -170.5841 -97.5485 30437.7210 -170.5841 -97.5485
ENERGY: 300000 3.6658 17.9543 6.1357 0.0000 -10624.7073 1425.0504 0.0000 0.0000 1738.0380 -7433.8632 296.1302 -9171.9012 -7433.2176 292.1456 28.1841 50.5412 30511.6691 -262.1110 -200.3597
ENERGY: 600000 5.5341 15.8641 5.0927 0.0000 -10762.2361 1520.0665 0.0000 0.0000 1815.3890 -7400.2898 309.3094 -9215.6787 -7434.4223 294.5514 766.9455 772.9508 30040.0628 -4.7592 50.1241
ENERGY: 900000 4.0878 15.2369 7.2634 0.0000 -10573.4495 1340.4097 0.0000 0.0000 1773.0647 -7433.3871 302.0981 -9206.4519 -7419.9186 297.1970 -909.6717 -876.4764 30664.9673 30.5413 82.3047
ENERGY: 1200000 4.4407 14.9352 6.9083 0.0000 -10590.4191 1433.9874 0.0000 0.0000 1726.0355 -7404.1121 294.0852 -9130.1476 -7410.4822 297.7080 160.9062 207.0112 30402.4613 -73.9945 -17.3188
ENERGY: 1500000 4.7930 13.4539 6.6802 0.0000 -10589.8084 1339.8327 0.0000 0.0000 1818.2693 -7406.7794 309.8001 -9225.0487 -7408.3910 298.4682 -662.1804 -608.0365 30027.6744 -154.9313 -95.1704
TCL: Running FEP window  18: Lambda1 0.8500000000000002 Lambda2 0.9000000000000002 [dLambda 0.050000000000000044]
TCL: Setting parameter firsttimestep to 0
TCL: Setting parameter alchLambda to 0.8500000000000002
Info: NONBONDED TABLE R-SQUARED SPACING: 0.0625
Info: NONBONDED TABLE SIZE: 705 POINTS
TCL: Setting parameter alchLambda2 to 0.9000000000000002
Info: NONBONDED TABLE R-SQUARED SPACING: 0.0625
Info: NONBONDED TABLE SIZE: 705 POINTS
TCL: Running for 1500000 steps
ETITLE: TS BOND ANGLE DIHED IMPRP ELECT VDW BOUNDARY MISC KINETIC TOTAL TEMP POTENTIAL TOTALAVG TEMPAVG PRESSURE GPRESSURE VOLUME PRESSAVG GPRESSAVG
ENERGY: 0 4.7930 13.4539 6.6802 0.0000 -10591.0906 1340.1519 0.0000 0.0000 1817.4021 -7408.6095 309.6524 -9226.0116 -7408.6095 309.6524 -682.7385 -588.0308 30027.6744 -682.7385 -588.0308
ENERGY: 300000 2.3196 13.8111 6.6045 0.0000 -10428.9425 1294.0111 0.0000 0.0000 1806.0697 -7306.1264 307.7216 -9112.1961 -7392.4185 303.5227 -835.9454 -749.7700 30525.3512 -603.3808 -541.1108
ENERGY: 600000 7.1105 13.2095 4.8045 0.0000 -10581.8898 1402.9756 0.0000 0.0000 1760.7859 -7393.0039 300.0060 -9153.7898 -7391.9314 303.9128 -103.0638 -25.9341 30216.5999 -457.5168 -401.5218
ENERGY: 900000 4.1153 14.1470 6.5420 0.0000 -10741.3330 1477.6814 0.0000 0.0000 1765.9602 -7472.8870 300.8876 -9238.8472 -7409.6319 303.5905 314.2725 408.3641 30358.7713 -296.2204 -233.6347
ENERGY: 1200000 2.7140 17.8134 5.9066 0.0000 -10722.6853 1433.0054 0.0000 0.0000 1734.5050 -7528.7410 295.5282 -9263.2460 -7424.8435 302.5093 -353.1293 -331.5544 30351.2545 -305.2218 -253.9476
ENERGY: 1500000 2.8869 20.4149 6.2263 0.0000 -10599.8348 1377.7236 0.0000 0.0000 1774.1323 -7418.4509 302.2800 -9192.5832 -7419.5587 303.2944 -219.2345 -147.6374 30272.6984 -201.0324 -154.3837
TCL: Running FEP window  19: Lambda1 0.9000000000000002 Lambda2 0.9500000000000003 [dLambda 0.050000000000000044]
TCL: Setting parameter firsttimestep to 0
TCL: Setting parameter alchLambda to 0.9000000000000002
Info: NONBONDED TABLE R-SQUARED SPACING: 0.0625
Info: NONBONDED TABLE SIZE: 705 POINTS
TCL: Setting parameter alchLambda2 to 0.9500000000000003
Info: NONBONDED TABLE R-SQUARED SPACING: 0.0625
Info: NONBONDED TABLE SIZE: 705 POINTS
TCL: Running for 1500000 steps
ETITLE: TS BOND ANGLE DIHED IMPRP ELECT VDW BOUNDARY MISC KINETIC TOTAL TEMP POTENTIAL TOTALAVG TEMPAVG PRESSURE GPRESSURE VOLUME PRESSAVG GPRESSAVG
ENERGY: 0 2.8869 20.4149 6.2263 0.0000 -10601.1830 1378.4454 0.0000 0.0000 1773.2412 -7419.9684 302.1282 -9193.2096 -7419.9684 302.1282 -211.6291 -121.6103 30272.6984 -211.6291 -121.6103
ENERGY: 300000 3.4929 10.5025 6.5845 0.0000 -10478.3633 1337.3845 0.0000 0.0000 1809.9260 -7310.4730 308.3786 -9120.3990 -7390.0079 305.2035 -461.7621 -377.4949 30492.0439 -133.4699 -46.1484
ENERGY: 600000 5.9119 15.9465 6.6451 0.0000 -10606.4621 1402.1081 0.0000 0.0000 1751.4747 -7424.3758 298.4196 -9175.8505 -7406.4488 303.3617 -318.2149 -178.5842 30453.8402 -41.1366 55.9524
ENERGY: 900000 2.4154 12.1707 9.1920 0.0000 -10596.4300 1346.4320 0.0000 0.0000 1764.7125 -7461.5074 300.6750 -9226.2199 -7425.1019 301.6007 -565.2270 -558.3402 30362.5104 5.9045 88.7617
ENERGY: 1200000 5.6635 18.5353 6.5840 0.0000 -10607.7705 1374.4676 0.0000 0.0000 1736.1716 -7466.3486 295.8122 -9202.5202 -7427.8507 301.2237 -630.0263 -571.1930 30554.7101 -20.3862 58.5554
ENERGY: 1500000 6.4597 15.4430 7.4001 0.0000 -10748.0177 1500.5629 0.0000 0.0000 1770.9712 -7447.1808 301.7414 -9218.1520 -7429.6515 301.1496 147.6188 255.6208 30300.9303 -18.1781 63.3697
TCL: Running FEP window  20: Lambda1 0.9500000000000003 Lambda2 1.0    [dLambda 0.04999999999999971]
TCL: Setting parameter firsttimestep to 0
TCL: Setting parameter alchLambda to 0.9500000000000003
Info: NONBONDED TABLE R-SQUARED SPACING: 0.0625
Info: NONBONDED TABLE SIZE: 705 POINTS
TCL: Setting parameter alchLambda2 to 1.0
Info: NONBONDED TABLE R-SQUARED SPACING: 0.0625
Info: NONBONDED TABLE SIZE: 705 POINTS
TCL: Running for 1500000 steps
ETITLE: TS BOND ANGLE DIHED IMPRP ELECT VDW BOUNDARY MISC KINETIC TOTAL TEMP POTENTIAL TOTALAVG TEMPAVG PRESSURE GPRESSURE VOLUME PRESSAVG GPRESSAVG
ENERGY: 0 6.4597 15.4430 7.4001 0.0000 -10750.5270 1502.6626 0.0000 0.0000 1770.1477 -7448.4140 301.6011 -9218.5617 -7448.4140 301.6011 199.3750 293.8657 30300.9303 199.3750 293.8657
ENERGY: 300000 3.2611 17.0731 7.0502 0.0000 -10685.2184 1443.0272 0.0000 0.0000 1730.0150 -7484.7919 294.7632 -9214.8068 -7485.9585 296.0648 49.2274 172.6936 30073.0668 -41.3840 66.5517
ENERGY: 600000 1.6840 15.3480 4.6656 0.0000 -10594.3724 1442.0987 0.0000 0.0000 1712.9466 -7417.6295 291.8551 -9130.5761 -7463.2983 296.7674 415.6052 429.5093 30432.5752 -21.6826 39.0428
ENERGY: 900000 3.6323 13.7865 7.5277 0.0000 -10653.5380 1446.9785 0.0000 0.0000 1759.0867 -7422.5263 299.7165 -9181.6130 -7442.7288 298.9512 70.0781 161.6561 30334.3810 26.5945 89.1983
ENERGY: 1200000 2.0474 16.9459 4.5800 0.0000 -10661.7480 1436.4934 0.0000 0.0000 1776.2579 -7425.4234 302.6422 -9201.6813 -7435.8169 299.8668 -7.3338 58.3512 30426.3222 16.8863 80.9967
ENERGY: 1500000 3.0701 13.3927 5.9495 0.0000 -10590.9633 1407.9382 0.0000 0.0000 1791.4270 -7369.1858 305.2267 -9160.6128 -7423.3564 301.2241 -22.4721 62.7775 30275.7268 74.1228 131.9912
TCL: Exiting due to exit command.
