Info: SIMULATION PARAMETERS:
Info: TIMESTEP               2
Info: NUMBER OF STEPS        0
Info: STEPS PER CYCLE        10
Info: PERIODIC CELL BASIS 1  31.9493 0 0
Info: PERIODIC CELL BASIS 2  0 29.4114 0
Info: PERIODIC CELL BASIS 3  0 0 32.7541
Info: PERIODIC CELL CENTER   0 0 0
Info: WRAPPING WATERS AROUND PERIODIC BOUNDARIES ON OUTPUT.
Info: WRAPPING ALL CLUSTERS AROUND PERIODIC BOUNDARIES ON OUTPUT.
Info: FIRST LDB TIMESTEP     50
Info: LAST LDB TIMESTEP     -1
Info: HOM BACKGROUND SCALING 1
Info: PME BACKGROUND SCALING 1
Info: MIN ATOMS PER PATCH    40
Info: EMPTY PATCH LOAD       40 ATOMS
Info: VELOCITY FILE          mobley_1922649_equil.vel
Info: CENTER OF MASS MOVING INITIALLY? NO
Info: DIELECTRIC             1
Info: EXCLUDE                SCALED ONE-FOUR
Info: 1-4 ELECTROSTATICS SCALED BY 0.833333
Info: MODIFIED 1-4 VDW PARAMETERS WILL BE USED
Info: DCD FILENAME           mobley_1922649_prod.dcd
Info: DCD FREQUENCY          100000
Info: DCD FIRST STEP         100000
Info: DCD FILE WILL CONTAIN UNIT CELL DATA
Info: XST FILENAME           mobley_1922649_prod.xst
Info: XST FREQUENCY          100000
Info: NO VELOCITY DCD OUTPUT
Info: NO FORCE DCD OUTPUT
Info: OUTPUT FILENAME        mobley_1922649_prod
Info: BINARY OUTPUT FILES WILL BE USED
Info: RESTART FILENAME       mobley_1922649_prod.restart
Info: RESTART FREQUENCY      100000
Info: BINARY RESTART FILES WILL BE USED
Info: CUTOFF                 9
Info: PAIRLIST DISTANCE      11
Info: PAIRLIST SHRINK RATE   0.01
Info: PAIRLIST GROW RATE     0.01
Info: PAIRLIST TRIGGER       0.3
Info: PAIRLISTS PER CYCLE    2
Info: PAIRLISTS ENABLED
Info: MARGIN                 2
Info: HYDROGEN GROUP CUTOFF  2.5
Info: PATCH DIMENSION        15.5
Info: ENERGY OUTPUT STEPS    100000
Info: ENERGY EVALUATION STEPS    100000
Info: OUTPUT ENERGY PRECISION 4
Info: CROSSTERM ENERGY INCLUDED IN DIHEDRAL
Info: TIMING OUTPUT STEPS    1000000
Info: PRESSURE OUTPUT STEPS  100000
Info: ALCHEMICAL FEP ON
Info: FEP CURRENT LAMBDA VALUE     0
Info: FEP COMPARISON LAMBDA VALUE  0.05
Info: FEP INTRA-ALCHEMICAL NON-BONDED INTERACTIONS WILL BE RETAINED
Info: FEP INTRA-ALCHEMICAL BONDED INTERACTIONS WILL BE RETAINED
Info: FEP VDW SHIFTING COEFFICIENT 5
Info: FEP ELEC. ACTIVE FOR ANNIHILATED PARTICLES BETWEEN LAMBDA = 0 AND LAMBDA = 0.5
Info: FEP ELEC. ACTIVE FOR EXNIHILATED PARTICLES BETWEEN LAMBDA = 0.5 AND LAMBDA = 1
Info: FEP VDW ACTIVE FOR ANNIHILATED PARTICLES BETWEEN LAMBDA = 0 AND LAMBDA = 1
Info: FEP VDW ACTIVE FOR EXNIHILATED PARTICLES BETWEEN LAMBDA = 0 AND LAMBDA = 1
Info: FEP BOND ACTIVE FOR ANNIHILATED PARTICLES BETWEEN LAMBDA = 1 AND LAMBDA = 1
Info: FEP BOND ACTIVE FOR EXNIHILATED PARTICLES BETWEEN LAMBDA = 0 AND LAMBDA = 0
Info: LANGEVIN DYNAMICS ACTIVE
Info: LANGEVIN TEMPERATURE   300
Info: LANGEVIN USING BBK INTEGRATOR
Info: LANGEVIN DAMPING COEFFICIENT IS 1 INVERSE PS
Info: LANGEVIN DYNAMICS APPLIED TO HYDROGENS
Info: LANGEVIN PISTON PRESSURE CONTROL ACTIVE
Info:        TARGET PRESSURE IS 1.01325 BAR
Info:     OSCILLATION PERIOD IS 50 FS
Info:             DECAY TIME IS 25 FS
Info:     PISTON TEMPERATURE IS 300 K
Info:       PRESSURE CONTROL IS GROUP-BASED
Info:    INITIAL STRAIN RATE IS 0.000407394 0.000407394 0.000407394
Info:       CELL FLUCTUATION IS ISOTROPIC
Info: PARTICLE MESH EWALD (PME) ACTIVE
Info: PME TOLERANCE               1e-06
Info: PME EWALD COEFFICIENT       0.348832
Info: PME INTERPOLATION ORDER     4
Info: PME GRID DIMENSIONS         32 32 36
Info: PME MAXIMUM GRID SPACING    1
Info: PME CALCULATION WILL BE PERFORMED ON GPU
Info: FULL ELECTROSTATIC EVALUATION FREQUENCY      2
Info: USING VERLET I (r-RESPA) MTS SCHEME.
Info: C1 SPLITTING OF LONG RANGE ELECTROSTATICS
Info: PLACING ATOMS IN PATCHES BY HYDROGEN GROUPS
Info: RIGID BONDS TO HYDROGEN : ALL
Info:         ERROR TOLERANCE : 1e-08
Info:          MAX ITERATIONS : 100
Info: RIGID WATER USING SETTLE ALGORITHM
Info: RANDOM NUMBER SEED     1744027597
Info: USE HYDROGEN BONDS?    NO
Info: Using AMBER format force field!
Info: AMBER PARM FILE        mobley_1922649.prmtop
Info: COORDINATE PDB         mobley_1922649.pdb
Info: Exclusions will be read from PARM file!
Info: SCNB (VDW SCALING)     2
Info: USING ARITHMETIC MEAN TO COMBINE L-J SIGMA PARAMETERS
Info: BINARY COORDINATES     mobley_1922649_equil.coor
Info: SUMMARY OF PARAMETERS:
Info: 11 BONDS
Info: 12 ANGLES
Info:   12 HARMONIC
Info:   0 COSINE-BASED
Info: 8 DIHEDRAL
Info: 0 IMPROPER
Info: 0 CROSSTERM
Info: 0 VDW
Info: 66 VDW_PAIRS
Info: 0 NBTHOLE_PAIRS
Info: To read alchdata from file: mobley_1922649.pdb
Info: To read alchflag data from column: 5
Info: STRUCTURE SUMMARY:
Info: 2984 ATOMS
Info: 2984 BONDS
Info: 42 ANGLES
Info: 55 DIHEDRALS
Info: 0 IMPROPERS
Info: 0 CROSSTERMS
Info: 3068 EXCLUSIONS
Info: 2968 RIGID BONDS
Info: ALCH: 0 ATOMS TO DISAPPEAR IN FINAL STATE
Info: ALCH: 26 ATOMS TO APPEAR IN FINAL STATE
Info: 5984 DEGREES OF FREEDOM
Info: 1002 HYDROGEN GROUPS
Info: 4 ATOMS IN LARGEST HYDROGEN GROUP
Info: 1002 MIGRATION GROUPS
Info: 4 ATOMS IN LARGEST MIGRATION GROUP
Info: TOTAL MASS = 18027 amu
Info: TOTAL CHARGE = -0.000199929 e
Info: MASS DENSITY = 0.972612 g/cm^3
Info: ATOM DENSITY = 0.0969519 atoms/A^3
Info: ADDED 0 IMPLICIT EXCLUSIONS
Info: NONBONDED TABLE R-SQUARED SPACING: 0.0625
Info: NONBONDED TABLE SIZE: 705 POINTS
Info: REMOVING COM VELOCITY -0.181387 0.0111556 -0.0996254
Info: Use 3D box decompostion in PME FFT.
Info: Updated CUDA force table with 4096 elements.
Info: Updated CUDA LJ table with 11 x 11 elements.
Info: Found 28 unique exclusion lists needing 88 bytes
TCL: Running for 1500000 steps
ETITLE: TS BOND ANGLE DIHED IMPRP ELECT VDW BOUNDARY MISC KINETIC TOTAL TEMP POTENTIAL TOTALAVG TEMPAVG PRESSURE GPRESSURE VOLUME PRESSAVG GPRESSAVG
ENERGY: 0 4.1546 9.9943 15.0331 0.0000 -10761.4974 1457.3295 0.0000 0.0000 1807.7530 -7467.2329 304.0450 -9274.9859 -7467.2329 304.0450 89.6994 174.4570 30778.1458 89.6994 174.4570
ENERGY: 300000 5.9497 13.0849 12.0393 0.0000 -10866.9202 1579.5472 0.0000 0.0000 1737.0856 -7519.2134 292.1595 -9256.2991 -7544.5089 298.9544 1193.3320 1256.4660 30074.3434 292.8296 353.3696
ENERGY: 600000 3.1768 7.6603 13.6771 0.0000 -10717.6651 1386.5911 0.0000 0.0000 1757.9072 -7548.6526 295.6615 -9306.5598 -7546.9860 300.0102 -303.0872 -304.7929 30813.8329 250.8035 302.8473
ENERGY: 900000 5.7592 11.4197 17.8727 0.0000 -10833.2571 1471.5656 0.0000 0.0000 1804.5371 -7522.1029 303.5041 -9326.6400 -7547.1825 299.1894 445.3480 511.3482 30418.4887 82.5544 143.4253
ENERGY: 1200000 3.7301 9.0279 15.6508 0.0000 -10665.2265 1365.4767 0.0000 0.0000 1850.4139 -7420.9272 311.2201 -9271.3410 -7535.6953 300.7502 -431.6843 -397.8419 30571.6118 -22.8122 35.3916
ENERGY: 1500000 7.0187 9.4521 12.6349 0.0000 -10941.6011 1558.4023 0.0000 0.0000 1779.7471 -7574.3459 299.3347 -9354.0930 -7540.4733 300.1448 332.3364 449.9974 30669.1371 47.2703 109.8423
TCL: Running FEP window   2: Lambda1 0.05   Lambda2 0.1    [dLambda 0.05  ]
TCL: Setting parameter firsttimestep to 0
TCL: Setting parameter alchLambda to 0.05
Info: NONBONDED TABLE R-SQUARED SPACING: 0.0625
Info: NONBONDED TABLE SIZE: 705 POINTS
TCL: Setting parameter alchLambda2 to 0.1
Info: NONBONDED TABLE R-SQUARED SPACING: 0.0625
Info: NONBONDED TABLE SIZE: 705 POINTS
TCL: Running for 1500000 steps
ETITLE: TS BOND ANGLE DIHED IMPRP ELECT VDW BOUNDARY MISC KINETIC TOTAL TEMP POTENTIAL TOTALAVG TEMPAVG PRESSURE GPRESSURE VOLUME PRESSAVG GPRESSAVG
ENERGY: 0 7.0187 9.4521 12.6349 0.0000 -10941.6018 1560.7404 0.0000 0.0000 1778.8636 -7572.8920 299.1861 -9351.7556 -7572.8920 299.1861 383.1533 462.0908 30669.1371 383.1533 462.0908
ENERGY: 300000 4.5713 9.6951 12.4869 0.0000 -10901.9195 1502.5581 0.0000 0.0000 1742.2143 -7630.3939 293.0221 -9372.6082 -7586.3044 297.5308 552.3120 583.5395 29816.7902 161.2805 232.5066
ENERGY: 600000 5.2775 9.9560 11.1130 0.0000 -10772.5487 1453.2535 0.0000 0.0000 1778.1678 -7514.7809 299.0691 -9292.9487 -7562.3000 298.8400 248.8244 330.7180 30268.4759 -67.2144 10.3769
ENERGY: 900000 6.0471 7.8350 13.7757 0.0000 -10810.6847 1495.9295 0.0000 0.0000 1824.1322 -7462.9652 306.7998 -9287.0974 -7556.1039 299.0926 472.8769 487.5680 30714.6297 -10.8500 48.7060
ENERGY: 1200000 7.3059 8.2502 12.0842 0.0000 -10758.7657 1390.2526 0.0000 0.0000 1793.1931 -7547.6795 301.5962 -9340.8727 -7559.0508 300.2589 -667.9924 -566.1208 30645.7344 -185.1305 -127.6018
ENERGY: 1500000 3.6466 9.3784 20.2721 0.0000 -11112.5833 1613.3991 0.0000 0.0000 1753.3877 -7712.4994 294.9014 -9465.8871 -7570.5822 299.5509 953.5152 1009.1268 30025.8286 -152.2441 -93.7070
TCL: Running FEP window   3: Lambda1 0.1    Lambda2 0.15000000000000002 [dLambda 0.05000000000000002]
TCL: Setting parameter firsttimestep to 0
TCL: Setting parameter alchLambda to 0.1
Info: NONBONDED TABLE R-SQUARED SPACING: 0.0625
Info: NONBONDED TABLE SIZE: 705 POINTS
TCL: Setting parameter alchLambda2 to 0.15000000000000002
Info: NONBONDED TABLE R-SQUARED SPACING: 0.0625
Info: NONBONDED TABLE SIZE: 705 POINTS
TCL: Running for 1500000 steps
ETITLE: TS BOND ANGLE DIHED IMPRP ELECT VDW BOUNDARY MISC KINETIC TOTAL TEMP POTENTIAL TOTALAVG TEMPAVG PRESSURE GPRESSURE VOLUME PRESSAVG GPRESSAVG
ENERGY: 0 3.6466 9.3784 20.2721 0.0000 -11112.5837 1615.1609 0.0000 0.0000 1752.4756 -7711.6500 294.7479 -9464.1256 -7711.6500 294.7479 947.6837 1018.4492 30025.8286 947.6837 1018.4492
ENERGY: 300000 3.0341 10.9711 15.3211 0.0000 -10791.8518 1416.3146 0.0000 0.0000 1769.2148 -7576.9962 297.5633 -9346.2110 -7605.3501 298.0554 -409.8168 -297.2755 30433.5837 4.1337 87.5633
ENERGY: 600000 5.0769 11.0278 11.9261 0.0000 -10885.8914 1557.7780 0.0000 0.0000 1762.5732 -7537.5094 296.4463 -9300.0826 -7605.5162 298.4855 841.2291 934.4484 30590.8235 102.9605 181.3659
ENERGY: 900000 7.8005 16.0370 11.7254 0.0000 -10716.1023 1329.4438 0.0000 0.0000 1801.9866 -7549.1090 303.0752 -9351.0956 -7587.4728 300.0382 -752.7086 -679.0176 30385.6957 -85.3806 -3.7380
ENERGY: 1200000 4.0310 7.6277 11.6164 0.0000 -10811.7484 1531.3171 0.0000 0.0000 1810.0170 -7447.1393 304.4258 -9257.1562 -7586.3264 299.5817 925.1729 909.4239 30600.2533 12.5630 82.2686
ENERGY: 1500000 3.9621 10.2079 12.5428 0.0000 -10925.0519 1512.1781 0.0000 0.0000 1755.4810 -7630.6801 295.2534 -9386.1611 -7585.6679 299.3095 87.2476 129.4330 30785.1071 -7.3931 58.5117
TCL: Running FEP window   4: Lambda1 0.15000000000000002 Lambda2 0.2    [dLambda 0.04999999999999999]
TCL: Setting parameter firsttimestep to 0
TCL: Setting parameter alchLambda to 0.15000000000000002
Info: NONBONDED TABLE R-SQUARED SPACING: 0.0625
Info: NONBONDED TABLE SIZE: 705 POINTS
TCL: Setting parameter alchLambda2 to 0.2
Info: NONBONDED TABLE R-SQUARED SPACING: 0.0625
Info: NONBONDED TABLE SIZE: 705 POINTS
TCL: Running for 1500000 steps
ETITLE: TS BOND ANGLE DIHED IMPRP ELECT VDW BOUNDARY MISC KINETIC TOTAL TEMP POTENTIAL TOTALAVG TEMPAVG PRESSURE GPRESSURE VOLUME PRESSAVG GPRESSAVG
ENERGY: 0 3.9621 10.2079 12.5428 0.0000 -10925.0510 1513.3466 0.0000 0.0000 1754.6163 -7630.3753 295.1080 -9384.9916 -7630.3753 295.1080 52.1848 141.6474 30785.1071 52.1848 141.6474
ENERGY: 300000 2.9470 9.2093 13.1732 0.0000 -10808.2780 1436.8216 0.0000 0.0000 1834.8685 -7511.2585 308.6056 -9346.1270 -7560.6128 301.5674 85.4857 132.5475 30515.7437 193.6542 255.2175
ENERGY: 600000 7.0435 9.8552 20.4584 0.0000 -10828.9355 1431.5663 0.0000 0.0000 1786.0421 -7573.9701 300.3935 -9360.0122 -7561.6405 301.1471 -85.7438 -54.4325 30263.2445 -63.4612 -3.0332
ENERGY: 900000 4.5373 8.1795 14.5026 0.0000 -10835.0653 1402.7450 0.0000 0.0000 1779.9938 -7625.1071 299.3762 -9405.1009 -7565.5530 301.2450 -904.5235 -871.8124 30965.0621 -178.6777 -109.1726
ENERGY: 1200000 3.3792 13.8115 12.9377 0.0000 -10838.1141 1437.0624 0.0000 0.0000 1753.0947 -7617.8285 294.8521 -9370.9233 -7566.9667 301.2201 -382.8902 -293.5366 30840.5805 -236.9776 -168.4878
ENERGY: 1500000 4.1963 12.1169 13.2430 0.0000 -10911.5441 1478.7967 0.0000 0.0000 1800.3664 -7602.8249 302.8027 -9403.1913 -7572.2301 301.1168 74.7389 103.4365 30321.6828 -162.9127 -97.4480
TCL: Running FEP window   5: Lambda1 0.2    Lambda2 0.25   [dLambda 0.04999999999999999]
TCL: Setting parameter firsttimestep to 0
TCL: Setting parameter alchLambda to 0.2
Info: NONBONDED TABLE R-SQUARED SPACING: 0.0625
Info: NONBONDED TABLE SIZE: 705 POINTS
TCL: Setting parameter alchLambda2 to 0.25
Info: NONBONDED TABLE R-SQUARED SPACING: 0.0625
Info: NONBONDED TABLE SIZE: 705 POINTS
TCL: Running for 1500000 steps
ETITLE: TS BOND ANGLE DIHED IMPRP ELECT VDW BOUNDARY MISC KINETIC TOTAL TEMP POTENTIAL TOTALAVG TEMPAVG PRESSURE GPRESSURE VOLUME PRESSAVG GPRESSAVG
ENERGY: 0 4.1962 12.1169 13.2430 0.0000 -10911.5443 1479.5933 0.0000 0.0000 1799.4704 -7602.9245 302.6520 -9402.3949 -7602.9245 302.6520 34.6853 113.2088 30321.6828 34.6853 113.2088
ENERGY: 300000 4.4118 9.7466 12.9849 0.0000 -10924.6213 1553.8488 0.0000 0.0000 1791.6995 -7551.9298 301.3450 -9343.6293 -7566.9646 300.9539 668.6170 762.1822 30762.4597 242.9993 314.0254
ENERGY: 600000 2.6291 12.8639 16.9777 0.0000 -10678.8355 1453.5827 0.0000 0.0000 1834.2570 -7358.5250 308.5027 -9192.7820 -7532.2256 302.3612 249.2016 365.4754 30718.7207 269.9531 341.9669
ENERGY: 900000 5.6904 12.5530 11.7777 0.0000 -10761.9730 1423.5590 0.0000 0.0000 1766.8261 -7541.5668 297.1616 -9308.3929 -7530.9349 302.0519 -404.4806 -369.1409 30723.8622 159.6899 217.2115
ENERGY: 1200000 5.4115 8.2634 20.4239 0.0000 -10698.2424 1343.1248 0.0000 0.0000 1821.7699 -7499.2489 306.4025 -9321.0187 -7524.3199 303.6048 -587.7194 -476.4116 30469.5793 1.7326 61.1944
ENERGY: 1500000 5.9621 8.7439 14.5899 0.0000 -10825.3701 1458.6910 0.0000 0.0000 1862.3598 -7475.0234 313.2293 -9337.3832 -7526.0651 304.0054 34.4076 93.8352 30326.2956 -28.8752 33.2059
TCL: Running FEP window   6: Lambda1 0.25   Lambda2 0.3    [dLambda 0.04999999999999999]
TCL: Setting parameter firsttimestep to 0
TCL: Setting parameter alchLambda to 0.25
Info: NONBONDED TABLE R-SQUARED SPACING: 0.0625
Info: NONBONDED TABLE SIZE: 705 POINTS
TCL: Setting parameter alchLambda2 to 0.3
Info: NONBONDED TABLE R-SQUARED SPACING: 0.0625
Info: NONBONDED TABLE SIZE: 705 POINTS
TCL: Running for 1500000 steps
ETITLE: TS BOND ANGLE DIHED IMPRP ELECT VDW BOUNDARY MISC KINETIC TOTAL TEMP POTENTIAL TOTALAVG TEMPAVG PRESSURE GPRESSURE VOLUME PRESSAVG GPRESSAVG
ENERGY: 0 5.9621 8.7439 14.5899 0.0000 -10825.3727 1458.7075 0.0000 0.0000 1861.4695 -7475.8997 313.0796 -9337.3692 -7475.8997 313.0796 11.7571 100.5038 30326.2956 11.7571 100.5038
ENERGY: 300000 3.4578 9.3443 12.2486 0.0000 -10718.9209 1404.7568 0.0000 0.0000 1774.9579 -7514.1556 298.5292 -9289.1135 -7562.0413 302.4292 -112.2796 -108.6267 30821.8143 -12.2144 66.3939
ENERGY: 600000 3.0506 10.0884 11.8655 0.0000 -10863.0828 1453.4058 0.0000 0.0000 1789.3222 -7595.3503 300.9452 -9384.6726 -7568.7367 301.8014 -23.3465 26.0374 30218.1326 -106.3329 -34.1122
ENERGY: 900000 4.5034 10.6093 16.2032 0.0000 -10996.4673 1556.0994 0.0000 0.0000 1809.3509 -7599.7011 304.3138 -9409.0520 -7572.6720 301.4499 985.4643 1030.9765 30258.1984 9.0806 69.6804
ENERGY: 1200000 2.4241 7.4971 13.0260 0.0000 -10879.6314 1500.6720 0.0000 0.0000 1786.3111 -7569.7012 300.4387 -9356.0123 -7560.0453 301.5770 245.8781 268.3507 30894.0630 72.5076 122.5150
ENERGY: 1500000 4.0621 3.7543 12.6432 0.0000 -10869.8675 1516.1204 0.0000 0.0000 1798.9258 -7534.3617 302.5604 -9333.2875 -7562.9980 301.4999 735.2314 810.2690 30657.6048 78.2884 130.5205
TCL: Running FEP window   7: Lambda1 0.3    Lambda2 0.35   [dLambda 0.04999999999999999]
TCL: Setting parameter firsttimestep to 0
TCL: Setting parameter alchLambda to 0.3
Info: NONBONDED TABLE R-SQUARED SPACING: 0.0625
Info: NONBONDED TABLE SIZE: 705 POINTS
TCL: Setting parameter alchLambda2 to 0.35
Info: NONBONDED TABLE R-SQUARED SPACING: 0.0625
Info: NONBONDED TABLE SIZE: 705 POINTS
TCL: Running for 1500000 steps
ETITLE: TS BOND ANGLE DIHED IMPRP ELECT VDW BOUNDARY MISC KINETIC TOTAL TEMP POTENTIAL TOTALAVG TEMPAVG PRESSURE GPRESSURE VOLUME PRESSAVG GPRESSAVG
ENERGY: 0 4.0621 3.7543 12.6432 0.0000 -10869.8668 1515.8540 0.0000 0.0000 1798.0419 -7535.5113 302.4117 -9333.5532 -7535.5113 302.4117 730.5785 813.1272 30657.6048 730.5785 813.1272
ENERGY: 300000 3.7074 6.4734 12.4853 0.0000 -10792.4171 1413.8319 0.0000 0.0000 1760.7193 -7595.1997 296.1345 -9355.9190 -7571.1810 297.2876 -636.6084 -610.5958 30981.3744 -36.1335 12.6523
ENERGY: 600000 2.9432 8.7664 15.8460 0.0000 -10843.6301 1472.7042 0.0000 0.0000 1750.7103 -7592.6600 294.4510 -9343.3703 -7554.1431 299.8068 36.1815 107.8234 30587.7962 -228.8838 -180.4583
ENERGY: 900000 5.0428 8.1187 19.0526 0.0000 -10896.8073 1535.7068 0.0000 0.0000 1747.6659 -7581.2205 293.9390 -9328.8863 -7562.2647 299.2081 635.1874 743.0338 30425.1454 -46.2223 13.3899
ENERGY: 1200000 2.9426 7.1144 15.9777 0.0000 -10838.5282 1435.2766 0.0000 0.0000 1800.4720 -7576.7449 302.8204 -9377.2169 -7564.3938 299.4451 214.3331 277.0696 30083.7062 -60.5369 1.2395
ENERGY: 1500000 2.7276 7.2467 13.1151 0.0000 -10667.5174 1357.2571 0.0000 0.0000 1836.2440 -7450.9269 308.8369 -9287.1709 -7550.6019 299.8550 -394.1734 -326.1775 30772.8517 -141.5359 -80.6623
TCL: Running FEP window   8: Lambda1 0.35   Lambda2 0.39999999999999997 [dLambda 0.04999999999999999]
TCL: Setting parameter firsttimestep to 0
TCL: Setting parameter alchLambda to 0.35
Info: NONBONDED TABLE R-SQUARED SPACING: 0.0625
Info: NONBONDED TABLE SIZE: 705 POINTS
TCL: Setting parameter alchLambda2 to 0.39999999999999997
Info: NONBONDED TABLE R-SQUARED SPACING: 0.0625
Info: NONBONDED TABLE SIZE: 705 POINTS
TCL: Running for 1500000 steps
ETITLE: TS BOND ANGLE DIHED IMPRP ELECT VDW BOUNDARY MISC KINETIC TOTAL TEMP POTENTIAL TOTALAVG TEMPAVG PRESSURE GPRESSURE VOLUME PRESSAVG GPRESSAVG
ENERGY: 0 2.7276 7.2467 13.1151 0.0000 -10667.5164 1357.1648 0.0000 0.0000 1835.3752 -7451.8870 308.6908 -9287.2622 -7451.8870 308.6908 -416.8112 -318.9923 30772.8517 -416.8112 -318.9923
ENERGY: 300000 5.0812 5.3116 12.5627 0.0000 -10894.0798 1504.6531 0.0000 0.0000 1764.2915 -7602.1798 296.7353 -9366.4714 -7529.6933 303.1323 764.9968 798.8418 30307.7064 444.4768 502.8925
ENERGY: 600000 3.9396 10.0442 13.6814 0.0000 -10726.4476 1375.1814 0.0000 0.0000 1802.1204 -7521.4808 303.0977 -9323.6011 -7553.3073 300.6605 -860.9774 -807.7631 31239.3339 367.0894 415.1375
ENERGY: 900000 4.7154 15.6645 13.6495 0.0000 -10851.3147 1481.4564 0.0000 0.0000 1787.2586 -7548.5703 300.5981 -9335.8289 -7549.1186 301.1212 371.8645 346.4959 30421.3550 315.1826 351.2238
ENERGY: 1200000 2.6635 6.3446 13.8276 0.0000 -10720.1810 1447.5344 0.0000 0.0000 1797.7078 -7452.1031 302.3555 -9249.8109 -7549.3319 301.3559 488.5026 490.7327 30665.0097 365.4297 402.8767
ENERGY: 1500000 4.6279 9.9981 14.4776 0.0000 -10736.2554 1373.6681 0.0000 0.0000 1794.8261 -7538.6576 301.8708 -9333.4837 -7550.4026 300.8624 -678.3921 -669.8611 30880.4400 185.3253 228.8352
TCL: Running FEP window   9: Lambda1 0.39999999999999997 Lambda2 0.44999999999999996 [dLambda 0.04999999999999999]
TCL: Setting parameter firsttimestep to 0
TCL: Setting parameter alchLambda to 0.39999999999999997
Info: NONBONDED TABLE R-SQUARED SPACING: 0.0625
Info: NONBONDED TABLE SIZE: 705 POINTS
TCL: Setting parameter alchLambda2 to 0.44999999999999996
Info: NONBONDED TABLE R-SQUARED SPACING: 0.0625
Info: NONBONDED TABLE SIZE: 705 POINTS
TCL: Running for 1500000 steps
ETITLE: TS BOND ANGLE DIHED IMPRP ELECT VDW BOUNDARY MISC KINETIC TOTAL TEMP POTENTIAL TOTALAVG TEMPAVG PRESSURE GPRESSURE VOLUME PRESSAVG GPRESSAVG
ENERGY: 0 4.6279 9.9981 14.4776 0.0000 -10736.2558 1374.7374 0.0000 0.0000 1793.8976 -7538.5173 301.7147 -9332.4149 -7538.5173 301.7147 -739.2524 -654.5243 30880.4400 -739.2524 -654.5243
ENERGY: 300000 8.1910 7.0622 13.7026 0.0000 -10860.1012 1515.1636 0.0000 0.0000 1785.7779 -7530.2039 300.3490 -9315.9818 -7534.2158 301.8736 254.6488 354.2640 30990.4368 -211.5059 -139.6741
ENERGY: 600000 10.1829 8.5662 13.0814 0.0000 -10800.6864 1390.5980 0.0000 0.0000 1831.3593 -7546.8987 308.0153 -9378.2580 -7542.7831 302.1749 -667.8164 -583.5446 30675.8806 -213.5802 -148.9114
ENERGY: 900000 9.1119 10.6020 11.3714 0.0000 -10827.8977 1416.2921 0.0000 0.0000 1755.2467 -7625.2736 295.2140 -9380.5204 -7563.9012 299.7429 -533.2529 -511.9589 30882.5749 -308.2823 -252.7410
ENERGY: 1200000 6.5622 8.0100 19.0252 0.0000 -10835.1182 1467.6026 0.0000 0.0000 1758.4437 -7575.4745 295.7517 -9333.9182 -7573.6558 298.2903 192.3876 274.3404 30624.8458 -260.4961 -197.5795
ENERGY: 1500000 7.3580 10.0054 13.9704 0.0000 -10953.2224 1536.4542 0.0000 0.0000 1820.8891 -7564.5452 306.2544 -9385.4343 -7574.5636 299.2316 614.3529 622.9701 30537.4845 -130.0947 -78.5014
TCL: Running FEP window  10: Lambda1 0.44999999999999996 Lambda2 0.49999999999999994 [dLambda 0.04999999999999999]
TCL: Setting parameter firsttimestep to 0
TCL: Setting parameter alchLambda to 0.44999999999999996
Info: NONBONDED TABLE R-SQUARED SPACING: 0.0625
Info: NONBONDED TABLE SIZE: 705 POINTS
TCL: Setting parameter alchLambda2 to 0.49999999999999994
Info: NONBONDED TABLE R-SQUARED SPACING: 0.0625
Info: NONBONDED TABLE SIZE: 705 POINTS
TCL: Running for 1500000 steps
ETITLE: TS BOND ANGLE DIHED IMPRP ELECT VDW BOUNDARY MISC KINETIC TOTAL TEMP POTENTIAL TOTALAVG TEMPAVG PRESSURE GPRESSURE VOLUME PRESSAVG GPRESSAVG
ENERGY: 0 7.3580 10.0054 13.9704 0.0000 -10953.2199 1536.1890 0.0000 0.0000 1820.0361 -7565.6610 306.1109 -9385.6971 -7565.6610 306.1109 556.6598 631.1363 30537.4845 556.6598 631.1363
ENERGY: 300000 2.9375 8.2224 17.4570 0.0000 -10833.2396 1522.7418 0.0000 0.0000 1752.8024 -7529.0785 294.8029 -9281.8809 -7573.3734 300.8149 1015.2373 1062.7819 30380.8133 568.2647 631.5275
ENERGY: 600000 2.7681 8.3269 12.1428 0.0000 -10715.6932 1404.1866 0.0000 0.0000 1769.8869 -7518.3818 297.6763 -9288.2687 -7572.0847 299.6067 -256.0725 -206.3902 30989.2380 227.8201 295.6735
ENERGY: 900000 4.6358 11.0633 15.1045 0.0000 -10809.7180 1435.2679 0.0000 0.0000 1767.9502 -7575.6963 297.3506 -9343.6465 -7569.7632 299.9152 -191.5779 -197.8186 30693.5002 236.3774 304.2557
ENERGY: 1200000 6.5961 10.6787 12.3736 0.0000 -10722.5108 1426.8972 0.0000 0.0000 1779.9348 -7486.0304 299.3663 -9265.9652 -7566.8378 299.3080 157.1534 220.6323 30682.3787 150.2862 221.9161
ENERGY: 1500000 5.9418 8.2163 13.3691 0.0000 -10859.0350 1482.6834 0.0000 0.0000 1753.3924 -7595.4320 294.9021 -9348.8244 -7560.5833 299.7351 128.6715 212.2753 30805.6727 130.3061 196.2374
TCL: Running FEP window  11: Lambda1 0.49999999999999994 Lambda2 0.5499999999999999 [dLambda 0.04999999999999999]
TCL: Setting parameter firsttimestep to 0
TCL: Setting parameter alchLambda to 0.49999999999999994
Info: NONBONDED TABLE R-SQUARED SPACING: 0.0625
Info: NONBONDED TABLE SIZE: 705 POINTS
TCL: Setting parameter alchLambda2 to 0.5499999999999999
Info: NONBONDED TABLE R-SQUARED SPACING: 0.0625
Info: NONBONDED TABLE SIZE: 705 POINTS
TCL: Running for 1500000 steps
ETITLE: TS BOND ANGLE DIHED IMPRP ELECT VDW BOUNDARY MISC KINETIC TOTAL TEMP POTENTIAL TOTALAVG TEMPAVG PRESSURE GPRESSURE VOLUME PRESSAVG GPRESSAVG
ENERGY: 0 5.9418 8.2163 13.3691 0.0000 -10859.0351 1483.6611 0.0000 0.0000 1752.5122 -7595.3346 294.7541 -9347.8468 -7595.3346 294.7541 146.1414 231.2511 30805.6727 146.1414 231.2511
ENERGY: 300000 5.8502 8.3782 14.4820 0.0000 -10761.5172 1493.9297 0.0000 0.0000 1775.3831 -7463.4941 298.6007 -9238.8772 -7522.6136 298.5427 399.1509 450.0313 31162.8751 45.7990 114.6346
ENERGY: 600000 7.5643 14.8262 11.2914 0.0000 -10770.2172 1448.3124 0.0000 0.0000 1824.8002 -7463.4227 306.9122 -9288.2228 -7536.5858 300.1485 69.9814 227.4761 30616.0838 -14.3302 62.0071
ENERGY: 900000 9.9805 8.1353 10.7390 0.0000 -10791.5786 1411.8317 0.0000 0.0000 1720.1674 -7630.7247 289.3140 -9350.8920 -7558.0397 299.3349 -500.8064 -387.6922 30599.7079 -47.4305 23.3404
ENERGY: 1200000 6.2084 11.1007 12.7423 0.0000 -10740.8628 1413.7618 0.0000 0.0000 1778.2461 -7518.8036 299.0823 -9297.0497 -7549.1692 300.6618 -223.2243 -204.2224 30918.7658 -57.5006 13.2597
ENERGY: 1500000 5.0270 12.0068 13.0117 0.0000 -10874.8715 1496.7821 0.0000 0.0000 1787.5662 -7560.4778 300.6498 -9348.0440 -7556.7384 300.8316 444.5205 528.8109 30530.9199 28.1164 96.0689
TCL: Running FEP window  12: Lambda1 0.5499999999999999 Lambda2 0.6    [dLambda 0.050000000000000044]
TCL: Setting parameter firsttimestep to 0
TCL: Setting parameter alchLambda to 0.5499999999999999
Info: NONBONDED TABLE R-SQUARED SPACING: 0.0625
Info: NONBONDED TABLE SIZE: 705 POINTS
TCL: Setting parameter alchLambda2 to 0.6
Info: NONBONDED TABLE R-SQUARED SPACING: 0.0625
Info: NONBONDED TABLE SIZE: 705 POINTS
TCL: Running for 1500000 steps
ETITLE: TS BOND ANGLE DIHED IMPRP ELECT VDW BOUNDARY MISC KINETIC TOTAL TEMP POTENTIAL TOTALAVG TEMPAVG PRESSURE GPRESSURE VOLUME PRESSAVG GPRESSAVG
ENERGY: 0 5.0270 12.0067 13.0117 0.0000 -10874.6993 1496.1199 0.0000 0.0000 1786.6805 -7561.8535 300.5008 -9348.5340 -7561.8535 300.5008 457.6240 534.6393 30530.9199 457.6240 534.6393
ENERGY: 300000 3.4415 9.0699 17.0405 0.0000 -11022.4424 1552.6296 0.0000 0.0000 1735.3204 -7704.9404 291.8626 -9440.2609 -7592.8267 299.9592 709.8738 820.7262 30214.6502 341.2308 406.6321
ENERGY: 600000 3.8311 11.0675 15.7534 0.0000 -10924.1019 1512.0698 0.0000 0.0000 1800.2684 -7581.1117 302.7862 -9381.3800 -7590.2132 298.5918 214.5099 274.2967 31110.4512 221.4098 272.9823
ENERGY: 900000 7.9972 9.3070 12.0416 0.0000 -10947.9869 1513.1797 0.0000 0.0000 1764.0648 -7641.3966 296.6971 -9405.4614 -7602.4914 298.9393 304.0551 311.5226 30461.1971 108.2035 149.1502
ENERGY: 1200000 4.2322 10.3504 14.1825 0.0000 -10860.8619 1463.9060 0.0000 0.0000 1856.8190 -7511.3718 312.2974 -9368.1908 -7576.7776 300.5485 345.3395 413.9024 30035.3224 91.7000 145.2729
ENERGY: 1500000 1.9296 10.6294 16.5445 0.0000 -10772.5288 1424.1018 0.0000 0.0000 1827.7020 -7491.6215 307.4002 -9319.3236 -7582.0322 300.3582 -264.1407 -157.8172 31010.5195 37.1392 91.9667
TCL: Running FEP window  13: Lambda1 0.6    Lambda2 0.65   [dLambda 0.050000000000000044]
TCL: Setting parameter firsttimestep to 0
TCL: Setting parameter alchLambda to 0.6
Info: NONBONDED TABLE R-SQUARED SPACING: 0.0625
Info: NONBONDED TABLE SIZE: 705 POINTS
TCL: Setting parameter alchLambda2 to 0.65
Info: NONBONDED TABLE R-SQUARED SPACING: 0.0625
Info: NONBONDED TABLE SIZE: 705 POINTS
TCL: Running for 1500000 steps
ETITLE: TS BOND ANGLE DIHED IMPRP ELECT VDW BOUNDARY MISC KINETIC TOTAL TEMP POTENTIAL TOTALAVG TEMPAVG PRESSURE GPRESSURE VOLUME PRESSAVG GPRESSAVG
ENERGY: 0 1.9296 10.6294 16.5445 0.0000 -10773.4572 1424.9728 0.0000 0.0000 1826.8056 -7492.5753 307.2495 -9319.3809 -7492.5753 307.2495 -237.7324 -141.2660 31010.5195 -237.7324 -141.2660
ENERGY: 300000 5.0313 9.0322 13.9915 0.0000 -10780.0418 1414.5198 0.0000 0.0000 1765.5985 -7571.8683 296.9551 -9337.4668 -7553.7622 299.0030 -410.0804 -385.3203 30819.4621 -75.4904 -9.2635
ENERGY: 600000 3.0392 10.1953 13.6510 0.0000 -10799.3567 1407.2755 0.0000 0.0000 1798.8788 -7566.3169 302.5525 -9365.1956 -7543.6503 300.1143 -216.7519 -157.9691 30527.0802 -121.3148 -50.4711
ENERGY: 900000 4.5204 9.4792 12.7354 0.0000 -10806.8706 1444.6409 0.0000 0.0000 1792.8314 -7542.6634 301.5354 -9335.4948 -7551.3997 300.1672 148.1213 176.1875 30740.4427 6.5046 81.4811
ENERGY: 1200000 4.6152 7.4084 16.8998 0.0000 -10835.9650 1425.9659 0.0000 0.0000 1773.6058 -7607.4700 298.3018 -9381.0758 -7556.3657 299.8006 -544.9354 -479.2374 31061.0848 -56.7046 14.5710
ENERGY: 1500000 4.3188 16.3757 15.9085 0.0000 -10813.9513 1411.9354 0.0000 0.0000 1781.5051 -7583.9079 299.6304 -9365.4130 -7560.1750 299.3492 -369.8767 -331.3199 30743.1738 -115.3228 -48.5262
TCL: Running FEP window  14: Lambda1 0.65   Lambda2 0.7000000000000001 [dLambda 0.050000000000000044]
TCL: Setting parameter firsttimestep to 0
TCL: Setting parameter alchLambda to 0.65
Info: NONBONDED TABLE R-SQUARED SPACING: 0.0625
Info: NONBONDED TABLE SIZE: 705 POINTS
TCL: Setting parameter alchLambda2 to 0.7000000000000001
Info: NONBONDED TABLE R-SQUARED SPACING: 0.0625
Info: NONBONDED TABLE SIZE: 705 POINTS
TCL: Running for 1500000 steps
ETITLE: TS BOND ANGLE DIHED IMPRP ELECT VDW BOUNDARY MISC KINETIC TOTAL TEMP POTENTIAL TOTALAVG TEMPAVG PRESSURE GPRESSURE VOLUME PRESSAVG GPRESSAVG
ENERGY: 0 4.3188 16.3757 15.9085 0.0000 -10814.6241 1412.3230 0.0000 0.0000 1780.5795 -7585.1187 299.4747 -9365.6982 -7585.1187 299.4747 -408.3249 -312.8984 30743.1738 -408.3249 -312.8984
ENERGY: 300000 4.3566 7.5215 14.8813 0.0000 -10869.2323 1478.3428 0.0000 0.0000 1831.2113 -7532.9187 307.9905 -9364.1300 -7578.9452 302.7620 460.3746 452.8652 30540.0780 -313.6275 -262.3266
ENERGY: 600000 7.2039 12.7204 14.6298 0.0000 -10831.8214 1456.9785 0.0000 0.0000 1747.6715 -7592.6172 293.9399 -9340.2887 -7598.6809 299.0541 142.5916 205.6838 30695.0997 -128.4480 -83.0685
ENERGY: 900000 6.1184 13.8542 11.7566 0.0000 -10703.2361 1388.8897 0.0000 0.0000 1757.2107 -7525.4065 295.5443 -9282.6171 -7584.4879 298.4999 -341.4028 -240.0982 30596.0937 -268.0694 -217.8646
ENERGY: 1200000 6.0837 8.6046 15.1755 0.0000 -10760.2968 1390.4665 0.0000 0.0000 1790.0178 -7549.9487 301.0621 -9339.9665 -7571.8200 299.3608 -527.0772 -465.8776 31063.4092 -270.3884 -212.3024
ENERGY: 1500000 3.6113 8.4585 14.1956 0.0000 -10682.2683 1353.3941 0.0000 0.0000 1761.7483 -7540.8605 296.3075 -9302.6088 -7560.6976 299.9100 -493.5158 -440.2758 30735.1563 -283.1405 -226.8308
TCL: Running FEP window  15: Lambda1 0.7000000000000001 Lambda2 0.7500000000000001 [dLambda 0.050000000000000044]
TCL: Setting parameter firsttimestep to 0
TCL: Setting parameter alchLambda to 0.7000000000000001
Info: NONBONDED TABLE R-SQUARED SPACING: 0.0625
Info: NONBONDED TABLE SIZE: 705 POINTS
TCL: Setting parameter alchLambda2 to 0.7500000000000001
Info: NONBONDED TABLE R-SQUARED SPACING: 0.0625
Info: NONBONDED TABLE SIZE: 705 POINTS
TCL: Running for 1500000 steps
ETITLE: TS BOND ANGLE DIHED IMPRP ELECT VDW BOUNDARY MISC KINETIC TOTAL TEMP POTENTIAL TOTALAVG TEMPAVG PRESSURE GPRESSURE VOLUME PRESSAVG GPRESSAVG
ENERGY: 0 3.6113 8.4585 14.1956 0.0000 -10683.1121 1352.9373 0.0000 0.0000 1760.8785 -7543.0309 296.1612 -9303.9094 -7543.0309 296.1612 -506.5165 -433.5012 30735.1563 -506.5165 -433.5012
ENERGY: 300000 5.3768 11.0341 14.1246 0.0000 -10784.4319 1423.5767 0.0000 0.0000 1776.8095 -7553.5102 298.8406 -9330.3197 -7580.8729 299.2369 -229.7632 -142.8965 30652.7928 -323.5438 -237.7358
ENERGY: 600000 6.4604 8.3666 14.0373 0.0000 -10819.6176 1449.8647 0.0000 0.0000 1788.5066 -7552.3821 300.8080 -9340.8887 -7562.5996 301.2946 -176.4757 -123.3856 31116.8543 -235.4259 -175.3554
ENERGY: 900000 10.8037 8.7325 13.3011 0.0000 -10879.5217 1450.8322 0.0000 0.0000 1771.5130 -7624.3391 297.9498 -9395.8522 -7571.0712 301.1846 -136.3099 -96.5595 30693.5245 -158.6889 -96.2661
ENERGY: 1200000 3.7562 6.1020 14.2197 0.0000 -10828.2248 1447.4350 0.0000 0.0000 1790.1864 -7566.5255 301.0905 -9356.7119 -7558.5410 301.4471 -54.3932 -2.5246 30923.4818 -189.6347 -126.9143
ENERGY: 1500000 2.2354 7.7307 11.2290 0.0000 -10775.9763 1457.7102 0.0000 0.0000 1738.8193 -7558.2517 292.4511 -9297.0709 -7559.6297 300.2191 157.3974 206.2432 30991.6841 -87.3500 -21.5406
TCL: Running FEP window  16: Lambda1 0.7500000000000001 Lambda2 0.8000000000000002 [dLambda 0.050000000000000044]
TCL: Setting parameter firsttimestep to 0
TCL: Setting parameter alchLambda to 0.7500000000000001
Info: NONBONDED TABLE R-SQUARED SPACING: 0.0625
Info: NONBONDED TABLE SIZE: 705 POINTS
TCL: Setting parameter alchLambda2 to 0.8000000000000002
Info: NONBONDED TABLE R-SQUARED SPACING: 0.0625
Info: NONBONDED TABLE SIZE: 705 POINTS
TCL: Running for 1500000 steps
ETITLE: TS BOND ANGLE DIHED IMPRP ELECT VDW BOUNDARY MISC KINETIC TOTAL TEMP POTENTIAL TOTALAVG TEMPAVG PRESSURE GPRESSURE VOLUME PRESSAVG GPRESSAVG
ENERGY: 0 2.2354 7.7307 11.2290 0.0000 -10776.7221 1458.2929 0.0000 0.0000 1737.9380 -7559.2961 292.3029 -9297.2342 -7559.2961 292.3029 139.9875 227.4968 30991.6841 139.9875 227.4968
ENERGY: 300000 5.7548 7.3260 16.1287 0.0000 -10789.7729 1376.7966 0.0000 0.0000 1804.6914 -7579.0753 303.5301 -9383.7668 -7589.6578 294.5923 -230.6286 -210.5872 30389.3439 -24.3864 47.8910
ENERGY: 600000 6.2275 12.8407 16.1992 0.0000 -10764.2925 1396.1027 0.0000 0.0000 1768.7106 -7564.2118 297.4785 -9332.9224 -7590.1177 296.6208 -335.0235 -315.9503 30872.8105 -162.4316 -99.8600
ENERGY: 900000 3.5360 11.3186 11.9556 0.0000 -10806.7853 1428.9313 0.0000 0.0000 1815.5534 -7535.4904 305.3570 -9351.0438 -7579.2381 297.9436 89.8148 219.5771 30358.5856 -219.0358 -154.5608
ENERGY: 1200000 4.5991 9.2401 10.1837 0.0000 -10819.2449 1451.5881 0.0000 0.0000 1765.4036 -7578.2303 296.9223 -9343.6339 -7581.7299 297.3733 129.3010 235.4068 30717.2512 -192.0274 -121.6152
ENERGY: 1500000 3.8529 11.3244 15.2105 0.0000 -10704.9094 1348.7765 0.0000 0.0000 1827.5612 -7498.1839 307.3766 -9325.7451 -7582.4911 296.9834 -677.4770 -588.5192 30572.6321 -215.2311 -147.8357
TCL: Running FEP window  17: Lambda1 0.8000000000000002 Lambda2 0.8500000000000002 [dLambda 0.050000000000000044]
TCL: Setting parameter firsttimestep to 0
TCL: Setting parameter alchLambda to 0.8000000000000002
Info: NONBONDED TABLE R-SQUARED SPACING: 0.0625
Info: NONBONDED TABLE SIZE: 705 POINTS
TCL: Setting parameter alchLambda2 to 0.8500000000000002
Info: NONBONDED TABLE R-SQUARED SPACING: 0.0625
Info: NONBONDED TABLE SIZE: 705 POINTS
TCL: Running for 1500000 steps
ETITLE: TS BOND ANGLE DIHED IMPRP ELECT VDW BOUNDARY MISC KINETIC TOTAL TEMP POTENTIAL TOTALAVG TEMPAVG PRESSURE GPRESSURE VOLUME PRESSAVG GPRESSAVG
ENERGY: 0 3.8529 11.3244 15.2105 0.0000 -10706.3929 1347.9406 0.0000 0.0000 1826.6655 -7501.3990 307.2259 -9328.0645 -7501.3990 307.2259 -674.9991 -578.9294 30572.6321 -674.9991 -578.9294
ENERGY: 300000 4.3818 11.8922 15.4495 0.0000 -10752.5118 1361.7402 0.0000 0.0000 1776.3448 -7582.7033 298.7625 -9359.0481 -7560.4789 302.6670 -489.1228 -460.0273 30543.0903 -399.8485 -330.4748
ENERGY: 600000 5.3503 9.0366 17.4082 0.0000 -10880.8265 1576.2612 0.0000 0.0000 1782.2126 -7490.5575 299.7494 -9272.7702 -7554.9961 298.8307 1240.7158 1282.1291 31029.6304 -58.3865 6.7510
ENERGY: 900000 4.1057 8.7056 17.6568 0.0000 -10949.0873 1559.0541 0.0000 0.0000 1800.0373 -7559.5278 302.7473 -9359.5651 -7540.3119 301.3860 1200.9752 1203.3137 30354.1040 43.1399 114.4761
ENERGY: 1200000 3.8621 16.7380 16.1057 0.0000 -10731.9231 1386.6730 0.0000 0.0000 1780.3524 -7528.1919 299.4365 -9308.5443 -7536.1143 300.2830 -586.3748 -485.7513 31066.8977 -61.9811 7.6483
ENERGY: 1500000 6.8887 8.5299 20.8058 0.0000 -10964.3733 1485.6279 0.0000 0.0000 1806.9511 -7635.5699 303.9102 -9442.5211 -7545.9529 301.0704 232.2602 245.5975 30375.9119 5.4454 71.8970
TCL: Running FEP window  18: Lambda1 0.8500000000000002 Lambda2 0.9000000000000002 [dLambda 0.050000000000000044]
TCL: Setting parameter firsttimestep to 0
TCL: Setting parameter alchLambda to 0.8500000000000002
Info: NONBONDED TABLE R-SQUARED SPACING: 0.0625
Info: NONBONDED TABLE SIZE: 705 POINTS
TCL: Setting parameter alchLambda2 to 0.9000000000000002
Info: NONBONDED TABLE R-SQUARED SPACING: 0.0625
Info: NONBONDED TABLE SIZE: 705 POINTS
TCL: Running for 1500000 steps
ETITLE: TS BOND ANGLE DIHED IMPRP ELECT VDW BOUNDARY MISC KINETIC TOTAL TEMP POTENTIAL TOTALAVG TEMPAVG PRESSURE GPRESSURE VOLUME PRESSAVG GPRESSAVG
ENERGY: 0 6.8887 8.5299 20.8058 0.0000 -10966.3539 1487.9664 0.0000 0.0000 1806.0805 -7636.0826 303.7637 -9442.1631 -7636.0826 303.7637 205.3781 282.6932 30375.9119 205.3781 282.6932
ENERGY: 300000 5.5299 13.0538 15.1649 0.0000 -10814.2479 1433.0430 0.0000 0.0000 1835.5516 -7511.9046 308.7204 -9347.4562 -7576.7742 300.2507 -275.5862 -255.1489 31138.2909 -181.4041 -135.3690
ENERGY: 600000 4.1998 12.8030 14.0115 0.0000 -10671.6780 1367.8702 0.0000 0.0000 1822.8426 -7449.9509 306.5829 -9272.7934 -7577.9001 300.5094 -189.3948 -110.4847 31157.9447 -189.5770 -141.0842
ENERGY: 900000 4.6542 9.0545 15.2768 0.0000 -10921.9562 1478.2742 0.0000 0.0000 1720.4146 -7694.2819 289.3556 -9414.6964 -7598.2448 298.3583 147.0171 198.0137 30737.2957 -97.9881 -39.2721
ENERGY: 1200000 9.0409 12.5740 15.4478 0.0000 -10884.5386 1502.5080 0.0000 0.0000 1755.7173 -7589.2506 295.2932 -9344.9679 -7591.2808 298.7075 810.7081 865.5871 30115.7110 35.4643 90.2177
ENERGY: 1500000 6.9632 13.4602 14.3048 0.0000 -10679.7933 1373.8183 0.0000 0.0000 1754.3979 -7516.8489 295.0713 -9271.2468 -7592.2850 298.4998 -477.1331 -413.6569 31174.1540 76.2050 131.9464
TCL: Running FEP window  19: Lambda1 0.9000000000000002 Lambda2 0.9500000000000003 [dLambda 0.050000000000000044]
TCL: Setting parameter firsttimestep to 0
TCL: Setting parameter alchLambda to 0.9000000000000002
Info: NONBONDED TABLE R-SQUARED SPACING: 0.0625
Info: NONBONDED TABLE SIZE: 705 POINTS
TCL: Setting parameter alchLambda2 to 0.9500000000000003
Info: NONBONDED TABLE R-SQUARED SPACING: 0.0625
Info: NONBONDED TABLE SIZE: 705 POINTS
TCL: Running for 1500000 steps
ETITLE: TS BOND ANGLE DIHED IMPRP ELECT VDW BOUNDARY MISC KINETIC TOTAL TEMP POTENTIAL TOTALAVG TEMPAVG PRESSURE GPRESSURE VOLUME PRESSAVG GPRESSAVG
ENERGY: 0 6.9632 13.4602 14.3048 0.0000 -10681.5688 1374.1023 0.0000 0.0000 1753.4989 -7519.2395 294.9200 -9272.7383 -7519.2395 294.9200 -481.2504 -391.5028 31174.1540 -481.2504 -391.5028
ENERGY: 300000 8.5126 11.3479 18.2167 0.0000 -10953.3288 1516.0390 0.0000 0.0000 1845.0327 -7554.1799 310.3151 -9399.2126 -7576.5458 301.8811 502.6773 590.2002 30872.3068 -35.6854 40.5504
ENERGY: 600000 8.0905 6.7139 17.4265 0.0000 -10784.7214 1414.3913 0.0000 0.0000 1748.5942 -7589.5050 294.0951 -9338.0992 -7568.4742 301.6240 -313.6487 -229.9751 30776.0456 -194.5029 -125.5682
ENERGY: 900000 6.0888 7.0659 15.2282 0.0000 -10984.1434 1465.9105 0.0000 0.0000 1732.8514 -7756.9985 291.4474 -9489.8499 -7598.2832 300.2418 -257.4238 -258.2241 30657.9877 -200.1157 -147.9222
ENERGY: 1200000 4.9848 14.0777 13.9441 0.0000 -10776.9590 1425.9820 0.0000 0.0000 1757.4016 -7560.5689 295.5764 -9317.9704 -7587.5455 299.9924 -58.0525 92.2071 30666.4981 -130.9846 -71.4906
ENERGY: 1500000 2.4280 9.3761 15.8604 0.0000 -10767.4809 1461.6484 0.0000 0.0000 1776.3581 -7501.8099 298.7647 -9278.1680 -7577.1428 300.6832 117.2295 185.9214 31537.2396 -92.3647 -31.8525
TCL: Running FEP window  20: Lambda1 0.9500000000000003 Lambda2 1.0    [dLambda 0.04999999999999971]
TCL: Setting parameter firsttimestep to 0
TCL: Setting parameter alchLambda to 0.9500000000000003
Info: NONBONDED TABLE R-SQUARED SPACING: 0.0625
Info: NONBONDED TABLE SIZE: 705 POINTS
TCL: Setting parameter alchLambda2 to 1.0
Info: NONBONDED TABLE R-SQUARED SPACING: 0.0625
Info: NONBONDED TABLE SIZE: 705 POINTS
TCL: Running for 1500000 steps
ETITLE: TS BOND ANGLE DIHED IMPRP ELECT VDW BOUNDARY MISC KINETIC TOTAL TEMP POTENTIAL TOTALAVG TEMPAVG PRESSURE GPRESSURE VOLUME PRESSAVG GPRESSAVG
ENERGY: 0 2.4280 9.3761 15.8604 0.0000 -10769.5841 1462.3223 0.0000 0.0000 1775.4862 -7504.1111 298.6181 -9279.5973 -7504.1111 298.6181 127.2021 205.8821 31537.2396 127.2021 205.8821
ENERGY: 300000 3.4563 10.3082 13.5433 0.0000 -10741.3997 1366.2652 0.0000 0.0000 1811.1961 -7536.6307 304.6241 -9347.8267 -7576.5246 301.4766 -832.3247 -758.9290 31431.8774 -57.9062 18.7523
ENERGY: 600000 7.4023 11.6774 14.6475 0.0000 -10930.8896 1474.7835 0.0000 0.0000 1786.8928 -7635.4861 300.5365 -9422.3789 -7601.3707 301.0785 212.7499 261.4313 30909.0167 -141.7441 -64.6271
ENERGY: 900000 5.9855 7.8079 11.4953 0.0000 -10820.9122 1409.7929 0.0000 0.0000 1789.7852 -7596.0453 301.0230 -9385.8306 -7597.1005 301.4215 -150.2554 -79.4326 30802.5395 -5.6994 65.3348
ENERGY: 1200000 2.5387 9.4143 15.3540 0.0000 -10819.3160 1406.2034 0.0000 0.0000 1767.4620 -7618.3436 297.2685 -9385.8055 -7594.5435 300.9852 -333.4295 -251.3397 30525.0071 -30.7045 49.1481
ENERGY: 1500000 7.7061 5.8388 13.4986 0.0000 -10738.5235 1364.4350 0.0000 0.0000 1795.4997 -7551.5454 301.9841 -9347.0451 -7587.1474 301.2550 -869.7689 -784.9474 31708.9235 -106.2388 -27.8229
TCL: Exiting due to exit command.
