Info: SIMULATION PARAMETERS:
Info: TIMESTEP               2
Info: NUMBER OF STEPS        0
Info: STEPS PER CYCLE        10
Info: PERIODIC CELL BASIS 1  34.6946 0 0
Info: PERIODIC CELL BASIS 2  0 28.2773 0
Info: PERIODIC CELL BASIS 3  0 0 30.7174
Info: PERIODIC CELL CENTER   0 0 0
Info: WRAPPING WATERS AROUND PERIODIC BOUNDARIES ON OUTPUT.
Info: WRAPPING ALL CLUSTERS AROUND PERIODIC BOUNDARIES ON OUTPUT.
Info: FIRST LDB TIMESTEP     50
Info: LAST LDB TIMESTEP     -1
Info: HOM BACKGROUND SCALING 1
Info: PME BACKGROUND SCALING 1
Info: MIN ATOMS PER PATCH    40
Info: EMPTY PATCH LOAD       40 ATOMS
Info: VELOCITY FILE          mobley_3690931_equil.vel
Info: CENTER OF MASS MOVING INITIALLY? NO
Info: DIELECTRIC             1
Info: EXCLUDE                SCALED ONE-FOUR
Info: 1-4 ELECTROSTATICS SCALED BY 0.833333
Info: MODIFIED 1-4 VDW PARAMETERS WILL BE USED
Info: DCD FILENAME           mobley_3690931_prod.dcd
Info: DCD FREQUENCY          100000
Info: DCD FIRST STEP         100000
Info: DCD FILE WILL CONTAIN UNIT CELL DATA
Info: XST FILENAME           mobley_3690931_prod.xst
Info: XST FREQUENCY          100000
Info: NO VELOCITY DCD OUTPUT
Info: NO FORCE DCD OUTPUT
Info: OUTPUT FILENAME        mobley_3690931_prod
Info: BINARY OUTPUT FILES WILL BE USED
Info: RESTART FILENAME       mobley_3690931_prod.restart
Info: RESTART FREQUENCY      100000
Info: BINARY RESTART FILES WILL BE USED
Info: CUTOFF                 9
Info: PAIRLIST DISTANCE      11
Info: PAIRLIST SHRINK RATE   0.01
Info: PAIRLIST GROW RATE     0.01
Info: PAIRLIST TRIGGER       0.3
Info: PAIRLISTS PER CYCLE    2
Info: PAIRLISTS ENABLED
Info: MARGIN                 2
Info: HYDROGEN GROUP CUTOFF  2.5
Info: PATCH DIMENSION        15.5
Info: ENERGY OUTPUT STEPS    100000
Info: ENERGY EVALUATION STEPS    100000
Info: OUTPUT ENERGY PRECISION 4
Info: CROSSTERM ENERGY INCLUDED IN DIHEDRAL
Info: TIMING OUTPUT STEPS    1000000
Info: PRESSURE OUTPUT STEPS  100000
Info: ALCHEMICAL FEP ON
Info: FEP CURRENT LAMBDA VALUE     1
Info: FEP COMPARISON LAMBDA VALUE  0.95
Info: FEP INTRA-ALCHEMICAL NON-BONDED INTERACTIONS WILL BE RETAINED
Info: FEP INTRA-ALCHEMICAL BONDED INTERACTIONS WILL BE RETAINED
Info: FEP VDW SHIFTING COEFFICIENT 5
Info: FEP ELEC. ACTIVE FOR ANNIHILATED PARTICLES BETWEEN LAMBDA = 0 AND LAMBDA = 0.5
Info: FEP ELEC. ACTIVE FOR EXNIHILATED PARTICLES BETWEEN LAMBDA = 0.5 AND LAMBDA = 1
Info: FEP VDW ACTIVE FOR ANNIHILATED PARTICLES BETWEEN LAMBDA = 0 AND LAMBDA = 1
Info: FEP VDW ACTIVE FOR EXNIHILATED PARTICLES BETWEEN LAMBDA = 0 AND LAMBDA = 1
Info: FEP BOND ACTIVE FOR ANNIHILATED PARTICLES BETWEEN LAMBDA = 1 AND LAMBDA = 1
Info: FEP BOND ACTIVE FOR EXNIHILATED PARTICLES BETWEEN LAMBDA = 0 AND LAMBDA = 0
Info: LANGEVIN DYNAMICS ACTIVE
Info: LANGEVIN TEMPERATURE   300
Info: LANGEVIN USING BBK INTEGRATOR
Info: LANGEVIN DAMPING COEFFICIENT IS 1 INVERSE PS
Info: LANGEVIN DYNAMICS APPLIED TO HYDROGENS
Info: LANGEVIN PISTON PRESSURE CONTROL ACTIVE
Info:        TARGET PRESSURE IS 1.01325 BAR
Info:     OSCILLATION PERIOD IS 50 FS
Info:             DECAY TIME IS 25 FS
Info:     PISTON TEMPERATURE IS 300 K
Info:       PRESSURE CONTROL IS GROUP-BASED
Info:    INITIAL STRAIN RATE IS -0.000707676 -0.000707676 -0.000707676
Info:       CELL FLUCTUATION IS ISOTROPIC
Info: PARTICLE MESH EWALD (PME) ACTIVE
Info: PME TOLERANCE               1e-06
Info: PME EWALD COEFFICIENT       0.348832
Info: PME INTERPOLATION ORDER     4
Info: PME GRID DIMENSIONS         36 32 32
Info: PME MAXIMUM GRID SPACING    1
Info: PME CALCULATION WILL BE PERFORMED ON GPU
Info: FULL ELECTROSTATIC EVALUATION FREQUENCY      2
Info: USING VERLET I (r-RESPA) MTS SCHEME.
Info: C1 SPLITTING OF LONG RANGE ELECTROSTATICS
Info: PLACING ATOMS IN PATCHES BY HYDROGEN GROUPS
Info: RIGID BONDS TO HYDROGEN : ALL
Info:         ERROR TOLERANCE : 1e-08
Info:          MAX ITERATIONS : 100
Info: RIGID WATER USING SETTLE ALGORITHM
Info: RANDOM NUMBER SEED     1743979625
Info: USE HYDROGEN BONDS?    NO
Info: Using AMBER format force field!
Info: AMBER PARM FILE        mobley_3690931.prmtop
Info: COORDINATE PDB         mobley_3690931.pdb
Info: Exclusions will be read from PARM file!
Info: SCNB (VDW SCALING)     2
Info: USING ARITHMETIC MEAN TO COMBINE L-J SIGMA PARAMETERS
Info: BINARY COORDINATES     mobley_3690931_equil.coor
Info: SUMMARY OF PARAMETERS:
Info: 9 BONDS
Info: 13 ANGLES
Info:   13 HARMONIC
Info:   0 COSINE-BASED
Info: 17 DIHEDRAL
Info: 0 IMPROPER
Info: 0 CROSSTERM
Info: 0 VDW
Info: 36 VDW_PAIRS
Info: 0 NBTHOLE_PAIRS
Info: To read alchdata from file: mobley_3690931.pdb
Info: To read alchflag data from column: 5
Info: STRUCTURE SUMMARY:
Info: 2930 ATOMS
Info: 2929 BONDS
Info: 40 ANGLES
Info: 58 DIHEDRALS
Info: 0 IMPROPERS
Info: 0 CROSSTERMS
Info: 3016 EXCLUSIONS
Info: 2921 RIGID BONDS
Info: ALCH: 0 ATOMS TO DISAPPEAR IN FINAL STATE
Info: ALCH: 23 ATOMS TO APPEAR IN FINAL STATE
Info: 5869 DEGREES OF FREEDOM
Info: 978 HYDROGEN GROUPS
Info: 4 ATOMS IN LARGEST HYDROGEN GROUP
Info: 978 MIGRATION GROUPS
Info: 4 ATOMS IN LARGEST MIGRATION GROUP
Info: TOTAL MASS = 17587.7 amu
Info: TOTAL CHARGE = 0 e
Info: MASS DENSITY = 0.969137 g/cm^3
Info: ATOM DENSITY = 0.0972265 atoms/A^3
Info: ADDED 0 IMPLICIT EXCLUSIONS
Info: NONBONDED TABLE R-SQUARED SPACING: 0.0625
Info: NONBONDED TABLE SIZE: 705 POINTS
Info: REMOVING COM VELOCITY -0.0556294 0.0648498 -0.195212
Info: Use 3D box decompostion in PME FFT.
Info: Updated CUDA force table with 4096 elements.
Info: Updated CUDA LJ table with 8 x 8 elements.
Info: Found 24 unique exclusion lists needing 68 bytes
TCL: Running for 1500000 steps
ETITLE: TS BOND ANGLE DIHED IMPRP ELECT VDW BOUNDARY MISC KINETIC TOTAL TEMP POTENTIAL TOTALAVG TEMPAVG PRESSURE GPRESSURE VOLUME PRESSAVG GPRESSAVG
ENERGY: 0 1.8366 10.8890 5.2671 0.0000 -10629.9173 1437.3849 0.0000 0.0000 1768.0322 -7406.5076 303.1911 -9174.5397 -7406.5076 303.1911 174.7779 251.0304 30135.8044 174.7779 251.0304
ENERGY: 300000 1.6485 10.2818 7.4165 0.0000 -10517.9034 1409.1708 0.0000 0.0000 1789.2747 -7300.1112 306.8339 -9089.3859 -7414.8231 303.3126 -75.2653 -28.3434 30645.3550 -138.1627 -81.7406
ENERGY: 600000 1.2387 10.2770 5.5679 0.0000 -10533.3384 1374.9394 0.0000 0.0000 1708.6645 -7432.6509 293.0104 -9141.3154 -7398.9436 301.7192 -584.8590 -495.3933 30732.8887 -329.3243 -264.7641
ENERGY: 900000 1.2939 7.8290 3.9113 0.0000 -10568.6389 1386.3373 0.0000 0.0000 1741.8366 -7427.4309 298.6989 -9169.2675 -7405.2394 302.0923 -152.3759 -88.0579 29941.5695 -275.3888 -201.6753
ENERGY: 1200000 3.4945 8.7151 3.6234 0.0000 -10495.8798 1372.8206 0.0000 0.0000 1772.3093 -7334.9168 303.9246 -9107.2262 -7395.0244 302.7382 -111.5306 -15.5749 30322.3571 -172.8378 -104.4668
ENERGY: 1500000 3.1537 10.0621 4.9388 0.0000 -10647.1920 1407.8435 0.0000 0.0000 1731.1139 -7490.0800 296.8602 -9221.1939 -7399.6902 302.0565 -105.3983 -64.8552 30029.7379 -169.7030 -102.2087
TCL: Running FEP window   2: Lambda1 0.95   Lambda2 0.8999999999999999 [dLambda -0.050000000000000044]
TCL: Setting parameter firsttimestep to 0
TCL: Setting parameter alchLambda to 0.95
Info: NONBONDED TABLE R-SQUARED SPACING: 0.0625
Info: NONBONDED TABLE SIZE: 705 POINTS
TCL: Setting parameter alchLambda2 to 0.8999999999999999
Info: NONBONDED TABLE R-SQUARED SPACING: 0.0625
Info: NONBONDED TABLE SIZE: 705 POINTS
TCL: Running for 1500000 steps
ETITLE: TS BOND ANGLE DIHED IMPRP ELECT VDW BOUNDARY MISC KINETIC TOTAL TEMP POTENTIAL TOTALAVG TEMPAVG PRESSURE GPRESSURE VOLUME PRESSAVG GPRESSAVG
ENERGY: 0 3.1537 10.0621 4.9388 0.0000 -10645.3538 1406.8644 0.0000 0.0000 1730.2342 -7490.1005 296.7093 -9220.3347 -7490.1005 296.7093 -179.6486 -88.8099 30029.7379 -179.6486 -88.8099
ENERGY: 300000 2.0476 11.3447 5.5223 0.0000 -10504.4294 1351.5035 0.0000 0.0000 1746.7846 -7387.2268 299.5474 -9134.0113 -7406.5130 303.9555 -570.1576 -488.5838 30470.9913 -49.8150 35.0834
ENERGY: 600000 2.3345 10.5908 8.6002 0.0000 -10539.1198 1431.9930 0.0000 0.0000 1694.4288 -7391.1725 290.5692 -9085.6013 -7426.0920 298.2975 -15.1408 8.9139 30905.7620 -90.5922 -18.8255
ENERGY: 900000 4.4403 12.4069 5.1039 0.0000 -10490.3797 1351.9150 0.0000 0.0000 1754.0409 -7362.4727 300.7918 -9116.5136 -7417.8529 298.6994 -289.5739 -115.3568 29959.6670 -153.2801 -71.7991
ENERGY: 1200000 2.1383 10.4553 3.3686 0.0000 -10632.3497 1454.4434 0.0000 0.0000 1780.0200 -7381.9240 305.2468 -9161.9440 -7420.9265 298.5534 307.7798 369.9620 30053.6275 -86.6105 -12.4110
ENERGY: 1500000 5.4226 14.6732 4.6822 0.0000 -10524.8395 1378.1818 0.0000 0.0000 1738.2805 -7383.5993 298.0891 -9121.8798 -7407.4872 299.0263 0.8294 97.3180 29606.5654 -218.0214 -142.3212
TCL: Running FEP window   3: Lambda1 0.8999999999999999 Lambda2 0.8499999999999999 [dLambda -0.050000000000000044]
TCL: Setting parameter firsttimestep to 0
TCL: Setting parameter alchLambda to 0.8999999999999999
Info: NONBONDED TABLE R-SQUARED SPACING: 0.0625
Info: NONBONDED TABLE SIZE: 705 POINTS
TCL: Setting parameter alchLambda2 to 0.8499999999999999
Info: NONBONDED TABLE R-SQUARED SPACING: 0.0625
Info: NONBONDED TABLE SIZE: 705 POINTS
TCL: Running for 1500000 steps
ETITLE: TS BOND ANGLE DIHED IMPRP ELECT VDW BOUNDARY MISC KINETIC TOTAL TEMP POTENTIAL TOTALAVG TEMPAVG PRESSURE GPRESSURE VOLUME PRESSAVG GPRESSAVG
ENERGY: 0 5.4226 14.6732 4.6822 0.0000 -10524.0755 1378.0034 0.0000 0.0000 1737.3898 -7383.9044 297.9364 -9121.2942 -7383.9044 297.9364 5.7412 79.3324 29606.5654 5.7412 79.3324
ENERGY: 300000 2.7881 11.2982 6.6083 0.0000 -10563.2037 1419.8856 0.0000 0.0000 1696.0616 -7426.5619 290.8492 -9122.6235 -7415.3367 297.1089 2.6367 102.2130 30366.7320 -83.3632 -0.1469
ENERGY: 600000 1.2891 7.1160 7.1471 0.0000 -10544.5609 1401.0877 0.0000 0.0000 1793.4714 -7334.4496 307.5535 -9127.9210 -7391.9103 299.5956 -135.0649 -76.7681 30252.0729 -6.0132 64.7928
ENERGY: 900000 2.2653 11.4707 5.9130 0.0000 -10802.6963 1494.4548 0.0000 0.0000 1752.3024 -7536.2901 300.4937 -9288.5925 -7425.6491 299.9212 342.8799 430.6836 29691.6128 -68.6531 5.2750
ENERGY: 1200000 4.1728 10.9077 5.1530 0.0000 -10554.9095 1379.4633 0.0000 0.0000 1785.7673 -7369.4453 306.2324 -9155.2126 -7420.3826 300.1476 -364.0354 -302.1444 30262.7959 -192.1669 -122.8555
ENERGY: 1500000 2.2842 11.9300 4.3263 0.0000 -10776.5117 1495.1700 0.0000 0.0000 1727.9091 -7534.8920 296.3106 -9262.8011 -7432.4590 299.3377 468.9524 545.6610 29760.3585 -144.2503 -75.1537
TCL: Running FEP window   4: Lambda1 0.8499999999999999 Lambda2 0.7999999999999998 [dLambda -0.050000000000000044]
TCL: Setting parameter firsttimestep to 0
TCL: Setting parameter alchLambda to 0.8499999999999999
Info: NONBONDED TABLE R-SQUARED SPACING: 0.0625
Info: NONBONDED TABLE SIZE: 705 POINTS
TCL: Setting parameter alchLambda2 to 0.7999999999999998
Info: NONBONDED TABLE R-SQUARED SPACING: 0.0625
Info: NONBONDED TABLE SIZE: 705 POINTS
TCL: Running for 1500000 steps
ETITLE: TS BOND ANGLE DIHED IMPRP ELECT VDW BOUNDARY MISC KINETIC TOTAL TEMP POTENTIAL TOTALAVG TEMPAVG PRESSURE GPRESSURE VOLUME PRESSAVG GPRESSAVG
ENERGY: 0 2.2842 11.9300 4.3263 0.0000 -10775.2860 1494.8042 0.0000 0.0000 1727.0024 -7534.9389 296.1551 -9261.9414 -7534.9389 296.1551 449.6092 532.1241 29760.3585 449.6092 532.1241
ENERGY: 300000 1.9251 8.5778 5.3756 0.0000 -10765.7232 1456.7663 0.0000 0.0000 1702.3560 -7590.7224 291.9286 -9293.0784 -7498.7172 294.9005 -14.1265 -41.8309 30132.3596 305.0240 346.7127
ENERGY: 600000 1.1145 10.5605 5.9301 0.0000 -10581.6859 1399.9795 0.0000 0.0000 1784.4507 -7379.6505 306.0066 -9164.1012 -7480.0500 298.2096 -387.9322 -298.7996 30704.3843 92.1233 133.3742
ENERGY: 900000 1.1813 12.3171 5.1862 0.0000 -10700.9200 1491.6979 0.0000 0.0000 1747.0497 -7443.4878 299.5929 -9190.5375 -7447.1436 299.8489 520.0220 603.9338 30148.2094 165.3517 220.4797
ENERGY: 1200000 3.1293 11.3752 5.1705 0.0000 -10529.1551 1339.5540 0.0000 0.0000 1749.5526 -7420.3735 300.0221 -9169.9261 -7440.1477 298.9625 -675.0548 -556.6863 30104.8558 34.7446 91.7929
ENERGY: 1500000 3.7501 7.4584 5.2830 0.0000 -10591.3089 1362.4164 0.0000 0.0000 1795.8009 -7416.6001 307.9530 -9212.4009 -7431.0397 299.6581 -780.8937 -679.0204 30554.0134 -26.3683 37.3497
TCL: Running FEP window   5: Lambda1 0.7999999999999998 Lambda2 0.7499999999999998 [dLambda -0.050000000000000044]
TCL: Setting parameter firsttimestep to 0
TCL: Setting parameter alchLambda to 0.7999999999999998
Info: NONBONDED TABLE R-SQUARED SPACING: 0.0625
Info: NONBONDED TABLE SIZE: 705 POINTS
TCL: Setting parameter alchLambda2 to 0.7499999999999998
Info: NONBONDED TABLE R-SQUARED SPACING: 0.0625
Info: NONBONDED TABLE SIZE: 705 POINTS
TCL: Running for 1500000 steps
ETITLE: TS BOND ANGLE DIHED IMPRP ELECT VDW BOUNDARY MISC KINETIC TOTAL TEMP POTENTIAL TOTALAVG TEMPAVG PRESSURE GPRESSURE VOLUME PRESSAVG GPRESSAVG
ENERGY: 0 3.7501 7.4584 5.2830 0.0000 -10590.0403 1362.5983 0.0000 0.0000 1794.9488 -7416.0016 307.8069 -9210.9504 -7416.0016 307.8069 -765.8784 -688.4349 30554.0134 -765.8784 -688.4349
ENERGY: 300000 1.5363 7.0534 4.6595 0.0000 -10683.8024 1521.8026 0.0000 0.0000 1798.2968 -7350.4539 308.3810 -9148.7507 -7394.4678 303.0807 1154.8112 1302.0375 29457.7291 372.9405 463.0874
ENERGY: 600000 1.7338 7.5739 4.3409 0.0000 -10491.6078 1366.5318 0.0000 0.0000 1654.1409 -7457.2864 283.6604 -9111.4273 -7407.9477 298.8435 -402.8822 -297.5533 29971.2170 184.8300 267.9381
ENERGY: 900000 3.7346 10.2012 3.6141 0.0000 -10585.6494 1399.6685 0.0000 0.0000 1623.8689 -7544.5622 278.4692 -9168.4311 -7412.4746 297.9049 -273.1045 -234.8301 30231.9563 108.2346 182.5634
ENERGY: 1200000 2.7926 12.4895 7.0995 0.0000 -10587.1388 1359.6145 0.0000 0.0000 1774.1940 -7430.9486 304.2478 -9205.1427 -7413.2926 299.7495 -618.3897 -534.5243 30351.3007 -23.2407 43.6295
ENERGY: 1500000 1.5677 14.4163 4.8380 0.0000 -10432.3734 1296.7186 0.0000 0.0000 1757.9156 -7356.9171 301.4563 -9114.8328 -7402.0055 300.9917 -879.4626 -848.5582 30387.6852 -44.4038 23.7657
TCL: Running FEP window   6: Lambda1 0.7499999999999998 Lambda2 0.6999999999999997 [dLambda -0.050000000000000044]
TCL: Setting parameter firsttimestep to 0
TCL: Setting parameter alchLambda to 0.7499999999999998
Info: NONBONDED TABLE R-SQUARED SPACING: 0.0625
Info: NONBONDED TABLE SIZE: 705 POINTS
TCL: Setting parameter alchLambda2 to 0.6999999999999997
Info: NONBONDED TABLE R-SQUARED SPACING: 0.0625
Info: NONBONDED TABLE SIZE: 705 POINTS
TCL: Running for 1500000 steps
ETITLE: TS BOND ANGLE DIHED IMPRP ELECT VDW BOUNDARY MISC KINETIC TOTAL TEMP POTENTIAL TOTALAVG TEMPAVG PRESSURE GPRESSURE VOLUME PRESSAVG GPRESSAVG
ENERGY: 0 1.5677 14.4163 4.8380 0.0000 -10430.8579 1296.5063 0.0000 0.0000 1757.0537 -7356.4759 301.3085 -9113.5296 -7356.4759 301.3085 -946.1424 -862.3169 30387.6852 -946.1424 -862.3169
ENERGY: 300000 2.0662 11.5945 5.6687 0.0000 -10628.3775 1445.0843 0.0000 0.0000 1756.3592 -7407.6046 301.1894 -9163.9638 -7390.8978 299.8387 491.6557 515.9040 29667.1292 -46.5667 8.3372
ENERGY: 600000 2.7553 10.5777 6.4252 0.0000 -10740.7637 1549.0925 0.0000 0.0000 1748.4551 -7423.4579 299.8339 -9171.9130 -7407.4380 297.6421 1021.5887 1005.0244 30273.7244 163.4400 207.1862
ENERGY: 900000 2.6662 16.0423 4.5574 0.0000 -10734.0752 1547.7481 0.0000 0.0000 1673.5399 -7489.5213 286.9871 -9163.0612 -7420.7066 296.1241 872.0090 908.5709 29959.0537 129.1981 180.3101
ENERGY: 1200000 3.4482 12.7892 4.1606 0.0000 -10588.3321 1443.8103 0.0000 0.0000 1721.6453 -7402.4783 295.2364 -9124.1237 -7416.5496 296.9216 102.3632 226.3702 30152.3614 47.0171 101.9168
ENERGY: 1500000 1.1911 10.7978 3.7833 0.0000 -10393.8710 1244.1829 0.0000 0.0000 1714.1903 -7419.7256 293.9580 -9133.9159 -7413.7233 297.3667 -1524.3112 -1497.1620 30703.8500 -54.9251 -0.8088
TCL: Running FEP window   7: Lambda1 0.6999999999999997 Lambda2 0.6499999999999997 [dLambda -0.050000000000000044]
TCL: Setting parameter firsttimestep to 0
TCL: Setting parameter alchLambda to 0.6999999999999997
Info: NONBONDED TABLE R-SQUARED SPACING: 0.0625
Info: NONBONDED TABLE SIZE: 705 POINTS
TCL: Setting parameter alchLambda2 to 0.6499999999999997
Info: NONBONDED TABLE R-SQUARED SPACING: 0.0625
Info: NONBONDED TABLE SIZE: 705 POINTS
TCL: Running for 1500000 steps
ETITLE: TS BOND ANGLE DIHED IMPRP ELECT VDW BOUNDARY MISC KINETIC TOTAL TEMP POTENTIAL TOTALAVG TEMPAVG PRESSURE GPRESSURE VOLUME PRESSAVG GPRESSAVG
ENERGY: 0 1.1911 10.7978 3.7833 0.0000 -10393.3142 1244.5873 0.0000 0.0000 1713.3130 -7419.6417 293.8076 -9132.9547 -7419.6417 293.8076 -1594.6280 -1503.1628 30703.8500 -1594.6280 -1503.1628
ENERGY: 300000 1.1875 15.6545 4.1007 0.0000 -10382.2022 1305.2341 0.0000 0.0000 1771.9958 -7284.0295 303.8708 -9056.0253 -7367.1981 297.4831 -456.3863 -486.1679 30156.1364 -683.8512 -640.7391
ENERGY: 600000 2.6718 17.3377 4.0273 0.0000 -10660.9573 1471.9871 0.0000 0.0000 1746.2552 -7418.6782 299.4567 -9164.9334 -7387.3867 300.0462 169.8022 261.7272 30062.5392 -285.8347 -245.2633
ENERGY: 900000 2.5411 9.9653 5.7548 0.0000 -10559.6725 1377.4235 0.0000 0.0000 1777.6544 -7386.3335 304.8412 -9163.9878 -7401.9195 299.9925 -437.9543 -381.6598 30064.6744 -308.3682 -265.0907
ENERGY: 1200000 1.6741 9.0595 5.8982 0.0000 -10526.5468 1427.9366 0.0000 0.0000 1782.3262 -7299.6523 305.6423 -9081.9785 -7406.9885 300.4097 311.6837 375.9118 30065.3973 -288.4044 -242.3869
ENERGY: 1500000 2.5673 10.1640 4.7462 0.0000 -10604.3068 1384.5074 0.0000 0.0000 1726.1973 -7476.1247 296.0170 -9202.3220 -7412.0247 299.7097 -317.4108 -218.2043 29757.4723 -334.4980 -285.4165
TCL: Running FEP window   8: Lambda1 0.6499999999999997 Lambda2 0.5999999999999996 [dLambda -0.050000000000000044]
TCL: Setting parameter firsttimestep to 0
TCL: Setting parameter alchLambda to 0.6499999999999997
Info: NONBONDED TABLE R-SQUARED SPACING: 0.0625
Info: NONBONDED TABLE SIZE: 705 POINTS
TCL: Setting parameter alchLambda2 to 0.5999999999999996
Info: NONBONDED TABLE R-SQUARED SPACING: 0.0625
Info: NONBONDED TABLE SIZE: 705 POINTS
TCL: Running for 1500000 steps
ETITLE: TS BOND ANGLE DIHED IMPRP ELECT VDW BOUNDARY MISC KINETIC TOTAL TEMP POTENTIAL TOTALAVG TEMPAVG PRESSURE GPRESSURE VOLUME PRESSAVG GPRESSAVG
ENERGY: 0 2.5673 10.1640 4.7462 0.0000 -10603.4690 1385.0037 0.0000 0.0000 1725.3314 -7475.6563 295.8686 -9200.9878 -7475.6563 295.8686 -299.7181 -218.8920 29757.4723 -299.7181 -218.8920
ENERGY: 300000 2.8200 13.3146 6.2674 0.0000 -10668.9637 1444.7821 0.0000 0.0000 1821.9633 -7379.8163 312.4395 -9201.7796 -7403.2950 302.5879 60.1020 83.5159 30071.2509 -163.9328 -99.2087
ENERGY: 600000 1.6760 7.4964 3.8636 0.0000 -10573.8736 1406.2355 0.0000 0.0000 1789.1112 -7365.4910 306.8058 -9154.6022 -7408.5212 302.7621 -19.9485 68.9695 30037.1404 -67.0088 5.4775
ENERGY: 900000 3.5899 12.5202 4.3040 0.0000 -10648.6195 1485.3977 0.0000 0.0000 1762.6020 -7380.2057 302.2599 -9142.8077 -7389.9306 303.8258 489.5782 499.4215 30377.1391 -61.5532 11.1764
ENERGY: 1200000 2.6121 14.6691 5.4913 0.0000 -10590.3605 1396.6432 0.0000 0.0000 1755.2838 -7415.6610 301.0049 -9170.9448 -7394.6805 302.2256 -476.1432 -379.4869 30327.6087 -206.9124 -140.3707
ENERGY: 1500000 3.4654 10.1314 5.7600 0.0000 -10708.6764 1451.4273 0.0000 0.0000 1800.7878 -7437.1046 308.8082 -9237.8923 -7405.3472 301.8783 75.9349 113.4096 29847.7621 -224.9042 -160.0886
TCL: Running FEP window   9: Lambda1 0.5999999999999996 Lambda2 0.5499999999999996 [dLambda -0.050000000000000044]
TCL: Setting parameter firsttimestep to 0
TCL: Setting parameter alchLambda to 0.5999999999999996
Info: NONBONDED TABLE R-SQUARED SPACING: 0.0625
Info: NONBONDED TABLE SIZE: 705 POINTS
TCL: Setting parameter alchLambda2 to 0.5499999999999996
Info: NONBONDED TABLE R-SQUARED SPACING: 0.0625
Info: NONBONDED TABLE SIZE: 705 POINTS
TCL: Running for 1500000 steps
ETITLE: TS BOND ANGLE DIHED IMPRP ELECT VDW BOUNDARY MISC KINETIC TOTAL TEMP POTENTIAL TOTALAVG TEMPAVG PRESSURE GPRESSURE VOLUME PRESSAVG GPRESSAVG
ENERGY: 0 3.4654 10.1314 5.7600 0.0000 -10708.4484 1450.8941 0.0000 0.0000 1799.9386 -7438.2589 308.6626 -9238.1975 -7438.2589 308.6626 30.1929 99.2237 29847.7621 30.1929 99.2237
ENERGY: 300000 0.9006 10.6389 5.8325 0.0000 -10642.7477 1375.4618 0.0000 0.0000 1759.1498 -7490.7640 301.6679 -9249.9139 -7433.6718 301.4435 -750.3649 -650.1905 30186.6786 -508.4289 -446.2579
ENERGY: 600000 2.2628 11.4213 5.7185 0.0000 -10620.7396 1493.8299 0.0000 0.0000 1704.9313 -7402.5758 292.3702 -9107.5071 -7441.8875 299.6299 534.0865 616.0732 30133.3547 -182.5180 -126.4361
ENERGY: 900000 2.4520 10.3860 5.6490 0.0000 -10668.0345 1536.9124 0.0000 0.0000 1761.6413 -7350.9938 302.0952 -9112.6351 -7423.6736 300.5562 867.0795 919.8509 30282.8245 -89.3613 -21.6657
ENERGY: 1200000 3.8478 7.6082 6.4074 0.0000 -10609.6698 1455.8366 0.0000 0.0000 1708.5012 -7427.4685 292.9824 -9135.9698 -7432.1435 298.7556 348.1012 404.5715 29978.6229 -14.5307 54.1906
ENERGY: 1500000 2.4632 11.6595 5.6033 0.0000 -10589.1460 1402.5639 0.0000 0.0000 1733.2409 -7433.6152 297.2249 -9166.8561 -7423.6761 300.2238 -508.9009 -499.1691 30460.4906 -47.2956 12.3843
TCL: Running FEP window  10: Lambda1 0.5499999999999996 Lambda2 0.4999999999999996 [dLambda -0.04999999999999999]
TCL: Setting parameter firsttimestep to 0
TCL: Setting parameter alchLambda to 0.5499999999999996
Info: NONBONDED TABLE R-SQUARED SPACING: 0.0625
Info: NONBONDED TABLE SIZE: 705 POINTS
TCL: Setting parameter alchLambda2 to 0.4999999999999996
Info: NONBONDED TABLE R-SQUARED SPACING: 0.0625
Info: NONBONDED TABLE SIZE: 705 POINTS
TCL: Running for 1500000 steps
ETITLE: TS BOND ANGLE DIHED IMPRP ELECT VDW BOUNDARY MISC KINETIC TOTAL TEMP POTENTIAL TOTALAVG TEMPAVG PRESSURE GPRESSURE VOLUME PRESSAVG GPRESSAVG
ENERGY: 0 2.4632 11.6595 5.6033 0.0000 -10588.3101 1403.0718 0.0000 0.0000 1732.3714 -7433.1409 297.0758 -9165.5124 -7433.1409 297.0758 -589.4515 -504.0272 30460.4906 -589.4515 -504.0272
ENERGY: 300000 1.2354 7.9371 6.6959 0.0000 -10410.6194 1307.3888 0.0000 0.0000 1777.4248 -7309.9374 304.8018 -9087.3622 -7399.7379 300.6018 -920.3629 -879.8023 30818.4790 -195.2493 -127.5130
ENERGY: 600000 4.7809 8.7022 4.1308 0.0000 -10510.8490 1381.2100 0.0000 0.0000 1775.8251 -7336.1999 304.5275 -9112.0250 -7379.2981 302.4089 -283.2976 -284.8811 30632.1566 -46.6417 11.3586
ENERGY: 900000 2.4914 8.5395 5.5858 0.0000 -10624.8257 1454.5940 0.0000 0.0000 1701.5188 -7452.0962 291.7850 -9153.6150 -7386.9580 301.1802 397.2900 392.8437 29881.7947 -55.6656 2.3823
ENERGY: 1200000 1.4882 10.0474 7.4597 0.0000 -10550.9678 1385.2727 0.0000 0.0000 1738.7703 -7407.9295 298.1731 -9146.6999 -7393.4352 299.3178 -107.1910 -75.8432 29923.3141 -14.5730 42.3461
ENERGY: 1500000 2.2514 10.4853 6.4411 0.0000 -10609.9520 1451.3346 0.0000 0.0000 1793.9122 -7345.5276 307.6291 -9139.4397 -7388.7256 299.8408 495.2135 491.0571 29716.3969 -10.6710 42.9139
TCL: Running FEP window  11: Lambda1 0.4999999999999996 Lambda2 0.4499999999999996 [dLambda -0.04999999999999999]
TCL: Setting parameter firsttimestep to 0
TCL: Setting parameter alchLambda to 0.4999999999999996
Info: NONBONDED TABLE R-SQUARED SPACING: 0.0625
Info: NONBONDED TABLE SIZE: 705 POINTS
TCL: Setting parameter alchLambda2 to 0.4499999999999996
Info: NONBONDED TABLE R-SQUARED SPACING: 0.0625
Info: NONBONDED TABLE SIZE: 705 POINTS
TCL: Running for 1500000 steps
ETITLE: TS BOND ANGLE DIHED IMPRP ELECT VDW BOUNDARY MISC KINETIC TOTAL TEMP POTENTIAL TOTALAVG TEMPAVG PRESSURE GPRESSURE VOLUME PRESSAVG GPRESSAVG
ENERGY: 0 2.2514 10.4853 6.4411 0.0000 -10610.1949 1451.1695 0.0000 0.0000 1793.0072 -7346.8406 307.4739 -9139.8477 -7346.8406 307.4739 383.3867 480.8640 29716.3969 383.3867 480.8640
ENERGY: 300000 2.6266 7.9594 4.6223 0.0000 -10589.2425 1424.0531 0.0000 0.0000 1760.5754 -7389.4057 301.9124 -9149.9811 -7405.5265 300.5768 -232.8502 -206.3185 30595.5153 281.6089 347.2294
ENERGY: 600000 0.9065 7.1514 8.0147 0.0000 -10554.6483 1397.6076 0.0000 0.0000 1703.9537 -7437.0145 292.2026 -9140.9682 -7394.7147 299.4404 -390.4682 -320.1474 30239.1433 115.8450 171.7075
ENERGY: 900000 2.5053 10.9676 5.5590 0.0000 -10646.5324 1414.5953 0.0000 0.0000 1810.6658 -7402.2395 310.5021 -9212.9053 -7393.0946 300.1014 -14.0262 37.8453 29772.8736 37.0309 100.6843
ENERGY: 1200000 4.5606 8.6222 4.7542 0.0000 -10593.2675 1416.8557 0.0000 0.0000 1751.8395 -7406.6353 300.4143 -9158.4748 -7398.3715 299.3623 -380.4988 -333.6761 30557.5214 -41.0650 24.8772
ENERGY: 1500000 2.4642 6.7692 3.4996 0.0000 -10455.5654 1357.2778 0.0000 0.0000 1718.7148 -7366.8398 294.7339 -9085.5545 -7397.8253 298.9845 -293.6493 -203.3691 30036.2002 -13.0913 49.8557
TCL: Running FEP window  12: Lambda1 0.4499999999999996 Lambda2 0.39999999999999963 [dLambda -0.04999999999999999]
TCL: Setting parameter firsttimestep to 0
TCL: Setting parameter alchLambda to 0.4499999999999996
Info: NONBONDED TABLE R-SQUARED SPACING: 0.0625
Info: NONBONDED TABLE SIZE: 705 POINTS
TCL: Setting parameter alchLambda2 to 0.39999999999999963
Info: NONBONDED TABLE R-SQUARED SPACING: 0.0625
Info: NONBONDED TABLE SIZE: 705 POINTS
TCL: Running for 1500000 steps
ETITLE: TS BOND ANGLE DIHED IMPRP ELECT VDW BOUNDARY MISC KINETIC TOTAL TEMP POTENTIAL TOTALAVG TEMPAVG PRESSURE GPRESSURE VOLUME PRESSAVG GPRESSAVG
ENERGY: 0 2.4642 6.7692 3.4996 0.0000 -10455.5645 1357.3520 0.0000 0.0000 1717.8389 -7367.6405 294.5837 -9085.4794 -7367.6405 294.5837 -302.2952 -210.5461 30036.2002 -302.2952 -210.5461
ENERGY: 300000 2.0395 11.1300 4.2173 0.0000 -10697.4340 1494.4559 0.0000 0.0000 1714.1731 -7471.4181 293.9551 -9185.5912 -7469.1515 295.6125 210.2959 322.1981 30262.0327 -73.9846 5.7595
ENERGY: 600000 2.3158 12.7428 7.3397 0.0000 -10410.8413 1295.3012 0.0000 0.0000 1768.7131 -7324.4287 303.3079 -9093.1418 -7436.1952 297.9961 -754.1980 -701.1614 29811.9577 -152.1097 -79.7311
ENERGY: 900000 1.7784 4.2564 5.8032 0.0000 -10646.9895 1408.8677 0.0000 0.0000 1737.4968 -7488.7870 297.9547 -9226.2838 -7432.0522 298.2317 -409.7186 -358.7379 30301.6081 -181.1285 -111.6615
ENERGY: 1200000 2.7574 9.5972 6.3032 0.0000 -10544.7124 1383.6764 0.0000 0.0000 1830.2095 -7312.1688 313.8536 -9142.3783 -7429.7685 299.4876 -209.8236 -225.7926 30019.0259 -181.0044 -119.0046
ENERGY: 1500000 1.8449 7.4262 6.6534 0.0000 -10624.8192 1492.7379 0.0000 0.0000 1714.4369 -7401.7199 294.0003 -9116.1567 -7427.2758 299.0917 879.8042 950.0946 29729.7650 -58.0315 -3.9335
TCL: Running FEP window  13: Lambda1 0.39999999999999963 Lambda2 0.34999999999999964 [dLambda -0.04999999999999999]
TCL: Setting parameter firsttimestep to 0
TCL: Setting parameter alchLambda to 0.39999999999999963
Info: NONBONDED TABLE R-SQUARED SPACING: 0.0625
Info: NONBONDED TABLE SIZE: 705 POINTS
TCL: Setting parameter alchLambda2 to 0.34999999999999964
Info: NONBONDED TABLE R-SQUARED SPACING: 0.0625
Info: NONBONDED TABLE SIZE: 705 POINTS
TCL: Running for 1500000 steps
ETITLE: TS BOND ANGLE DIHED IMPRP ELECT VDW BOUNDARY MISC KINETIC TOTAL TEMP POTENTIAL TOTALAVG TEMPAVG PRESSURE GPRESSURE VOLUME PRESSAVG GPRESSAVG
ENERGY: 0 1.8449 7.4262 6.6534 0.0000 -10624.8204 1493.2839 0.0000 0.0000 1713.5481 -7402.0639 293.8479 -9115.6120 -7402.0639 293.8479 867.7684 945.9734 29729.7650 867.7684 945.9734
ENERGY: 300000 1.1904 9.7767 4.4129 0.0000 -10593.0147 1409.9735 0.0000 0.0000 1719.1515 -7448.5098 294.8088 -9167.6613 -7435.2268 296.6273 -213.2234 -157.9261 30134.0145 30.5011 95.9357
ENERGY: 600000 1.9012 11.9755 6.4924 0.0000 -10611.2188 1414.9560 0.0000 0.0000 1786.2518 -7389.6420 306.3155 -9175.8938 -7408.6460 298.3420 -258.3892 -187.6091 30273.1598 9.5687 75.8453
ENERGY: 900000 4.7530 6.9190 4.0260 0.0000 -10618.9373 1390.0520 0.0000 0.0000 1764.2742 -7448.9131 302.5467 -9213.1873 -7398.2075 300.3492 -254.7630 -265.0923 29984.9956 -70.8720 -12.4467
ENERGY: 1200000 3.3350 8.2551 2.7676 0.0000 -10721.8254 1522.6423 0.0000 0.0000 1770.9033 -7413.9221 303.6835 -9184.8254 -7393.8922 301.0355 912.3610 957.5779 29766.0040 54.9221 121.0443
ENERGY: 1500000 4.5537 11.4988 5.1679 0.0000 -10536.8115 1377.2666 0.0000 0.0000 1747.1043 -7391.2201 299.6023 -9138.3244 -7395.6356 300.1884 -391.8868 -367.0230 29606.8118 15.6516 82.3941
TCL: Running FEP window  14: Lambda1 0.34999999999999964 Lambda2 0.29999999999999966 [dLambda -0.04999999999999999]
TCL: Setting parameter firsttimestep to 0
TCL: Setting parameter alchLambda to 0.34999999999999964
Info: NONBONDED TABLE R-SQUARED SPACING: 0.0625
Info: NONBONDED TABLE SIZE: 705 POINTS
TCL: Setting parameter alchLambda2 to 0.29999999999999966
Info: NONBONDED TABLE R-SQUARED SPACING: 0.0625
Info: NONBONDED TABLE SIZE: 705 POINTS
TCL: Running for 1500000 steps
ETITLE: TS BOND ANGLE DIHED IMPRP ELECT VDW BOUNDARY MISC KINETIC TOTAL TEMP POTENTIAL TOTALAVG TEMPAVG PRESSURE GPRESSURE VOLUME PRESSAVG GPRESSAVG
ENERGY: 0 4.5537 11.4988 5.1679 0.0000 -10536.8146 1377.4065 0.0000 0.0000 1746.2249 -7391.9627 299.4515 -9138.1875 -7391.9627 299.4515 -451.7661 -369.8330 29606.8118 -451.7661 -369.8330
ENERGY: 300000 0.6073 10.7041 5.1903 0.0000 -10647.1203 1457.5625 0.0000 0.0000 1741.3285 -7431.7276 298.6118 -9173.0561 -7419.9320 300.3627 255.5419 323.1995 30078.6049 195.2352 263.3113
ENERGY: 600000 2.5674 5.6623 5.6155 0.0000 -10565.2709 1408.2381 0.0000 0.0000 1694.8879 -7448.2996 290.6479 -9143.1876 -7422.2207 299.5099 -191.5576 -149.2197 30295.5147 8.2178 68.1679
ENERGY: 900000 1.0389 8.0641 4.0329 0.0000 -10674.2761 1448.4844 0.0000 0.0000 1768.0505 -7444.6053 303.1942 -9212.6559 -7432.1429 299.0879 14.7893 120.0530 30142.8263 107.7973 169.0843
ENERGY: 1200000 1.8677 11.3135 3.4791 0.0000 -10649.6503 1449.8998 0.0000 0.0000 1788.5233 -7394.5669 306.7050 -9183.0902 -7423.4589 299.2002 93.6874 97.4379 30189.2976 176.2266 236.5514
ENERGY: 1500000 1.6403 4.6078 6.5056 0.0000 -10503.8677 1379.3294 0.0000 0.0000 1784.7344 -7327.0503 306.0553 -9111.7847 -7424.0127 298.9073 -101.8036 -18.8539 29937.4300 143.5756 205.8033
TCL: Running FEP window  15: Lambda1 0.29999999999999966 Lambda2 0.24999999999999967 [dLambda -0.04999999999999999]
TCL: Setting parameter firsttimestep to 0
TCL: Setting parameter alchLambda to 0.29999999999999966
Info: NONBONDED TABLE R-SQUARED SPACING: 0.0625
Info: NONBONDED TABLE SIZE: 705 POINTS
TCL: Setting parameter alchLambda2 to 0.24999999999999967
Info: NONBONDED TABLE R-SQUARED SPACING: 0.0625
Info: NONBONDED TABLE SIZE: 705 POINTS
TCL: Running for 1500000 steps
ETITLE: TS BOND ANGLE DIHED IMPRP ELECT VDW BOUNDARY MISC KINETIC TOTAL TEMP POTENTIAL TOTALAVG TEMPAVG PRESSURE GPRESSURE VOLUME PRESSAVG GPRESSAVG
ENERGY: 0 1.6403 4.6078 6.5056 0.0000 -10503.8654 1379.7230 0.0000 0.0000 1783.8823 -7327.5065 305.9092 -9111.3888 -7327.5065 305.9092 -116.4602 -21.6949 29937.4300 -116.4602 -21.6949
ENERGY: 300000 2.4026 10.1785 5.4787 0.0000 -10564.5354 1394.2070 0.0000 0.0000 1790.6999 -7361.5687 307.0783 -9152.2686 -7382.5509 301.4966 -171.7304 -102.4198 29976.5007 10.1390 100.2451
ENERGY: 600000 5.4794 11.7091 3.5888 0.0000 -10538.4199 1342.6196 0.0000 0.0000 1798.8765 -7376.1465 308.4804 -9175.0230 -7392.2193 302.3790 -878.4982 -834.0677 30401.2611 -46.4763 47.0699
ENERGY: 900000 2.3706 13.3668 6.1024 0.0000 -10542.7479 1421.6989 0.0000 0.0000 1726.5091 -7372.7001 296.0705 -9099.2092 -7400.2797 300.7039 13.4369 31.6202 30094.4791 -27.6172 53.2884
ENERGY: 1200000 2.4008 16.6581 5.4455 0.0000 -10602.6356 1440.6548 0.0000 0.0000 1663.7145 -7473.7617 285.3022 -9137.4763 -7408.0051 299.2628 289.5700 313.1739 30085.0868 87.1358 153.7036
ENERGY: 1500000 4.2042 10.3233 5.0111 0.0000 -10598.4074 1409.2689 0.0000 0.0000 1801.0398 -7368.5601 308.8514 -9169.5999 -7408.1386 299.9265 -206.9221 -138.8984 29948.3319 64.8632 126.2781
TCL: Running FEP window  16: Lambda1 0.24999999999999967 Lambda2 0.19999999999999968 [dLambda -0.04999999999999999]
TCL: Setting parameter firsttimestep to 0
TCL: Setting parameter alchLambda to 0.24999999999999967
Info: NONBONDED TABLE R-SQUARED SPACING: 0.0625
Info: NONBONDED TABLE SIZE: 705 POINTS
TCL: Setting parameter alchLambda2 to 0.19999999999999968
Info: NONBONDED TABLE R-SQUARED SPACING: 0.0625
Info: NONBONDED TABLE SIZE: 705 POINTS
TCL: Running for 1500000 steps
ETITLE: TS BOND ANGLE DIHED IMPRP ELECT VDW BOUNDARY MISC KINETIC TOTAL TEMP POTENTIAL TOTALAVG TEMPAVG PRESSURE GPRESSURE VOLUME PRESSAVG GPRESSAVG
ENERGY: 0 4.2042 10.3233 5.0111 0.0000 -10598.4066 1409.2773 0.0000 0.0000 1800.1622 -7369.4286 308.7009 -9169.5908 -7369.4286 308.7009 -226.7057 -141.2181 29948.3319 -226.7057 -141.2181
ENERGY: 300000 1.9022 7.8005 6.6147 0.0000 -10644.9739 1432.5367 0.0000 0.0000 1796.6730 -7399.4468 308.1026 -9196.1198 -7364.1978 309.6059 -51.1181 131.0065 30022.5116 -344.0820 -252.1580
ENERGY: 600000 4.5259 11.8879 5.6476 0.0000 -10675.8358 1504.5502 0.0000 0.0000 1764.8873 -7384.3368 302.6518 -9149.2241 -7376.9980 306.3808 792.8615 881.7086 29705.8857 -136.2990 -61.7008
ENERGY: 900000 1.2986 12.0333 4.8684 0.0000 -10606.0319 1421.1766 0.0000 0.0000 1757.9353 -7408.7196 301.4596 -9166.6549 -7374.3347 305.8235 -49.7639 31.2580 29889.0767 -84.2747 -16.1565
ENERGY: 1200000 1.3948 9.4882 5.3768 0.0000 -10695.8280 1544.9124 0.0000 0.0000 1742.6196 -7392.0361 298.8332 -9134.6557 -7374.2826 304.9129 1263.0546 1295.4053 29366.7393 39.5645 115.2178
ENERGY: 1500000 1.1518 10.2427 4.6806 0.0000 -10639.4666 1385.8526 0.0000 0.0000 1738.8623 -7498.6767 298.1889 -9237.5390 -7384.8498 303.8366 -293.9589 -155.3168 29559.0492 20.3286 95.4191
TCL: Running FEP window  17: Lambda1 0.19999999999999968 Lambda2 0.1499999999999997 [dLambda -0.04999999999999999]
TCL: Setting parameter firsttimestep to 0
TCL: Setting parameter alchLambda to 0.19999999999999968
Info: NONBONDED TABLE R-SQUARED SPACING: 0.0625
Info: NONBONDED TABLE SIZE: 705 POINTS
TCL: Setting parameter alchLambda2 to 0.1499999999999997
Info: NONBONDED TABLE R-SQUARED SPACING: 0.0625
Info: NONBONDED TABLE SIZE: 705 POINTS
TCL: Running for 1500000 steps
ETITLE: TS BOND ANGLE DIHED IMPRP ELECT VDW BOUNDARY MISC KINETIC TOTAL TEMP POTENTIAL TOTALAVG TEMPAVG PRESSURE GPRESSURE VOLUME PRESSAVG GPRESSAVG
ENERGY: 0 1.1518 10.2427 4.6806 0.0000 -10639.4665 1386.0225 0.0000 0.0000 1737.9746 -7499.3944 298.0367 -9237.3690 -7499.3944 298.0367 -253.8079 -157.9093 29559.0492 -253.8079 -157.9093
ENERGY: 300000 1.7568 8.3902 7.1985 0.0000 -10579.3021 1420.3883 0.0000 0.0000 1730.0158 -7411.5525 296.6719 -9141.5683 -7438.3471 296.1438 -54.4499 70.6200 30013.4967 -181.1728 -82.0871
ENERGY: 600000 2.9978 12.0354 6.0398 0.0000 -10675.4517 1454.6608 0.0000 0.0000 1762.2372 -7437.4806 302.1973 -9199.7178 -7436.5452 297.1685 68.4215 127.7327 30107.7496 -93.8918 -16.4881
ENERGY: 900000 1.1217 9.7687 6.2155 0.0000 -10684.7433 1479.9831 0.0000 0.0000 1794.2415 -7393.4127 307.6856 -9187.6542 -7427.5402 298.2536 617.5054 643.5985 29580.9433 49.8322 116.2424
ENERGY: 1200000 4.4332 10.4579 6.6618 0.0000 -10831.9746 1535.2718 0.0000 0.0000 1746.5944 -7528.5555 299.5148 -9275.1499 -7420.8903 299.2212 431.7753 447.9346 29829.8334 58.9416 126.1632
ENERGY: 1500000 1.3551 11.6004 6.4044 0.0000 -10542.7617 1411.1849 0.0000 0.0000 1680.8906 -7431.3262 288.2476 -9112.2168 -7415.7413 299.3024 -305.4493 -253.9705 30338.3535 -16.6749 48.1384
TCL: Running FEP window  18: Lambda1 0.1499999999999997 Lambda2 0.09999999999999969 [dLambda -0.05 ]
TCL: Setting parameter firsttimestep to 0
TCL: Setting parameter alchLambda to 0.1499999999999997
Info: NONBONDED TABLE R-SQUARED SPACING: 0.0625
Info: NONBONDED TABLE SIZE: 705 POINTS
TCL: Setting parameter alchLambda2 to 0.09999999999999969
Info: NONBONDED TABLE R-SQUARED SPACING: 0.0625
Info: NONBONDED TABLE SIZE: 705 POINTS
TCL: Running for 1500000 steps
ETITLE: TS BOND ANGLE DIHED IMPRP ELECT VDW BOUNDARY MISC KINETIC TOTAL TEMP POTENTIAL TOTALAVG TEMPAVG PRESSURE GPRESSURE VOLUME PRESSAVG GPRESSAVG
ENERGY: 0 1.3551 11.6004 6.4044 0.0000 -10542.7625 1411.3374 0.0000 0.0000 1679.9941 -7432.0711 288.0939 -9112.0652 -7432.0711 288.0939 -353.3928 -259.1171 30338.3535 -353.3928 -259.1171
ENERGY: 300000 2.2449 10.6527 7.2712 0.0000 -10488.6180 1363.4831 0.0000 0.0000 1746.8103 -7358.1557 299.5519 -9104.9661 -7377.5603 296.8656 -622.5793 -548.4565 30242.4565 -518.4923 -453.5520
ENERGY: 600000 2.4191 8.8219 7.0105 0.0000 -10501.4104 1342.6620 0.0000 0.0000 1785.0218 -7355.4751 306.1046 -9140.4969 -7389.5106 296.7479 -634.8928 -523.8452 30055.6108 -286.7863 -208.7531
ENERGY: 900000 1.9355 10.1884 4.1333 0.0000 -10529.8441 1375.1398 0.0000 0.0000 1762.6256 -7375.8215 302.2639 -9138.4471 -7406.4898 297.3226 -405.4122 -367.0724 30127.4573 -193.5089 -127.8269
ENERGY: 1200000 2.6047 12.2024 3.5565 0.0000 -10602.2905 1381.5519 0.0000 0.0000 1692.4535 -7509.9215 290.2305 -9202.3750 -7411.3414 297.3848 -384.7780 -272.7304 29509.4232 -207.6423 -143.0584
ENERGY: 1500000 1.7479 10.6435 6.3154 0.0000 -10743.8966 1529.3407 0.0000 0.0000 1764.7268 -7431.1223 302.6243 -9195.8491 -7403.6501 298.1396 562.5259 610.9483 29896.3507 -133.1704 -70.0491
TCL: Running FEP window  19: Lambda1 0.09999999999999969 Lambda2 0.049999999999999684 [dLambda -0.05 ]
TCL: Setting parameter firsttimestep to 0
TCL: Setting parameter alchLambda to 0.09999999999999969
Info: NONBONDED TABLE R-SQUARED SPACING: 0.0625
Info: NONBONDED TABLE SIZE: 705 POINTS
TCL: Setting parameter alchLambda2 to 0.049999999999999684
Info: NONBONDED TABLE R-SQUARED SPACING: 0.0625
Info: NONBONDED TABLE SIZE: 705 POINTS
TCL: Running for 1500000 steps
ETITLE: TS BOND ANGLE DIHED IMPRP ELECT VDW BOUNDARY MISC KINETIC TOTAL TEMP POTENTIAL TOTALAVG TEMPAVG PRESSURE GPRESSURE VOLUME PRESSAVG GPRESSAVG
ENERGY: 0 1.7479 10.6435 6.3154 0.0000 -10743.8956 1529.3694 0.0000 0.0000 1763.8858 -7431.9336 302.4801 -9195.8195 -7431.9336 302.4801 528.8937 606.7595 29896.3507 528.8937 606.7595
ENERGY: 300000 4.9575 7.6508 6.1675 0.0000 -10569.6935 1365.0073 0.0000 0.0000 1759.7264 -7426.1840 301.7668 -9185.9104 -7426.8525 296.7976 -987.2733 -909.2330 30360.6834 -435.4597 -362.3192
ENERGY: 600000 1.0568 6.6306 4.4011 0.0000 -10727.5038 1508.2710 0.0000 0.0000 1758.2691 -7448.8753 301.5169 -9207.1444 -7423.5020 297.8646 602.5153 647.4021 29776.8457 -143.7175 -86.6827
ENERGY: 900000 0.7633 11.9239 4.6889 0.0000 -10529.7713 1372.3774 0.0000 0.0000 1758.5440 -7381.4738 301.5640 -9140.0178 -7407.9472 298.7170 -314.1565 -184.0277 29987.9810 -197.2937 -128.1719
ENERGY: 1200000 1.7230 8.5650 5.5394 0.0000 -10591.8511 1406.6491 0.0000 0.0000 1765.2954 -7404.0792 302.7218 -9169.3746 -7402.5647 298.8780 -193.3005 -98.4300 29935.3761 -274.3186 -204.3269
ENERGY: 1500000 0.9544 12.3674 6.8876 0.0000 -10558.3662 1450.3641 0.0000 0.0000 1719.4403 -7368.3524 294.8583 -9087.7927 -7408.3581 297.7847 552.1695 550.8498 29891.5833 -196.7111 -130.0981
TCL: Running FEP window  20: Lambda1 0.049999999999999684 Lambda2 0.0    [dLambda -0.049999999999999684]
TCL: Setting parameter firsttimestep to 0
TCL: Setting parameter alchLambda to 0.049999999999999684
Info: NONBONDED TABLE R-SQUARED SPACING: 0.0625
Info: NONBONDED TABLE SIZE: 705 POINTS
TCL: Setting parameter alchLambda2 to 0.0
Info: NONBONDED TABLE R-SQUARED SPACING: 0.0625
Info: NONBONDED TABLE SIZE: 705 POINTS
TCL: Running for 1500000 steps
ETITLE: TS BOND ANGLE DIHED IMPRP ELECT VDW BOUNDARY MISC KINETIC TOTAL TEMP POTENTIAL TOTALAVG TEMPAVG PRESSURE GPRESSURE VOLUME PRESSAVG GPRESSAVG
ENERGY: 0 0.9544 12.3674 6.8876 0.0000 -10558.3649 1450.0701 0.0000 0.0000 1718.5212 -7369.5641 294.7007 -9088.0853 -7369.5641 294.7007 443.0988 542.2989 29891.5833 443.0988 542.2989
ENERGY: 300000 1.3087 7.5004 7.7580 0.0000 -10825.0470 1590.6721 0.0000 0.0000 1691.3221 -7526.4856 290.0365 -9217.8077 -7432.4147 293.9750 1283.0052 1305.4557 29384.9366 588.3393 656.6168
ENERGY: 600000 2.2712 11.9883 5.2739 0.0000 -10467.1704 1337.5926 0.0000 0.0000 1769.0861 -7340.9583 303.3718 -9110.0444 -7415.7536 296.5858 -651.7155 -588.5589 30198.9160 403.5186 468.4685
ENERGY: 900000 1.4530 11.6877 3.2341 0.0000 -10596.0818 1412.2420 0.0000 0.0000 1723.0595 -7444.4054 295.4790 -9167.4649 -7412.1216 298.0818 -60.4795 -115.9247 29734.4779 384.8341 425.7758
ENERGY: 1200000 3.2059 10.6544 4.1668 0.0000 -10437.0076 1325.1092 0.0000 0.0000 1780.0095 -7313.8619 305.2450 -9093.8714 -7403.7085 299.4355 -758.5198 -663.2133 30144.5948 278.6573 331.2272
ENERGY: 1500000 1.8471 10.4681 4.9182 0.0000 -10537.0798 1416.8437 0.0000 0.0000 1798.2499 -7304.7526 308.3730 -9103.0025 -7396.4956 299.7575 -185.9744 -87.2337 30456.2905 108.9075 165.5096
TCL: Exiting due to exit command.
