Info: SIMULATION PARAMETERS:
Info: TIMESTEP               2
Info: NUMBER OF STEPS        0
Info: STEPS PER CYCLE        10
Info: PERIODIC CELL BASIS 1  32.1493 0 0
Info: PERIODIC CELL BASIS 2  0 29.344 0
Info: PERIODIC CELL BASIS 3  0 0 31.804
Info: PERIODIC CELL CENTER   0 0 0
Info: WRAPPING WATERS AROUND PERIODIC BOUNDARIES ON OUTPUT.
Info: WRAPPING ALL CLUSTERS AROUND PERIODIC BOUNDARIES ON OUTPUT.
Info: FIRST LDB TIMESTEP     50
Info: LAST LDB TIMESTEP     -1
Info: HOM BACKGROUND SCALING 1
Info: PME BACKGROUND SCALING 1
Info: MIN ATOMS PER PATCH    40
Info: EMPTY PATCH LOAD       40 ATOMS
Info: VELOCITY FILE          mobley_9897248_equil.vel
Info: CENTER OF MASS MOVING INITIALLY? NO
Info: DIELECTRIC             1
Info: EXCLUDE                SCALED ONE-FOUR
Info: 1-4 ELECTROSTATICS SCALED BY 0.833333
Info: MODIFIED 1-4 VDW PARAMETERS WILL BE USED
Info: DCD FILENAME           mobley_9897248_prod.dcd
Info: DCD FREQUENCY          100000
Info: DCD FIRST STEP         100000
Info: DCD FILE WILL CONTAIN UNIT CELL DATA
Info: XST FILENAME           mobley_9897248_prod.xst
Info: XST FREQUENCY          100000
Info: NO VELOCITY DCD OUTPUT
Info: NO FORCE DCD OUTPUT
Info: OUTPUT FILENAME        mobley_9897248_prod
Info: BINARY OUTPUT FILES WILL BE USED
Info: RESTART FILENAME       mobley_9897248_prod.restart
Info: RESTART FREQUENCY      100000
Info: BINARY RESTART FILES WILL BE USED
Info: CUTOFF                 9
Info: PAIRLIST DISTANCE      11
Info: PAIRLIST SHRINK RATE   0.01
Info: PAIRLIST GROW RATE     0.01
Info: PAIRLIST TRIGGER       0.3
Info: PAIRLISTS PER CYCLE    2
Info: PAIRLISTS ENABLED
Info: MARGIN                 2
Info: HYDROGEN GROUP CUTOFF  2.5
Info: PATCH DIMENSION        15.5
Info: ENERGY OUTPUT STEPS    100000
Info: ENERGY EVALUATION STEPS    100000
Info: OUTPUT ENERGY PRECISION 4
Info: CROSSTERM ENERGY INCLUDED IN DIHEDRAL
Info: TIMING OUTPUT STEPS    1000000
Info: PRESSURE OUTPUT STEPS  100000
Info: ALCHEMICAL FEP ON
Info: FEP CURRENT LAMBDA VALUE     1
Info: FEP COMPARISON LAMBDA VALUE  0.95
Info: FEP INTRA-ALCHEMICAL NON-BONDED INTERACTIONS WILL BE RETAINED
Info: FEP INTRA-ALCHEMICAL BONDED INTERACTIONS WILL BE RETAINED
Info: FEP VDW SHIFTING COEFFICIENT 5
Info: FEP ELEC. ACTIVE FOR ANNIHILATED PARTICLES BETWEEN LAMBDA = 0 AND LAMBDA = 0.5
Info: FEP ELEC. ACTIVE FOR EXNIHILATED PARTICLES BETWEEN LAMBDA = 0.5 AND LAMBDA = 1
Info: FEP VDW ACTIVE FOR ANNIHILATED PARTICLES BETWEEN LAMBDA = 0 AND LAMBDA = 1
Info: FEP VDW ACTIVE FOR EXNIHILATED PARTICLES BETWEEN LAMBDA = 0 AND LAMBDA = 1
Info: FEP BOND ACTIVE FOR ANNIHILATED PARTICLES BETWEEN LAMBDA = 1 AND LAMBDA = 1
Info: FEP BOND ACTIVE FOR EXNIHILATED PARTICLES BETWEEN LAMBDA = 0 AND LAMBDA = 0
Info: LANGEVIN DYNAMICS ACTIVE
Info: LANGEVIN TEMPERATURE   300
Info: LANGEVIN USING BBK INTEGRATOR
Info: LANGEVIN DAMPING COEFFICIENT IS 1 INVERSE PS
Info: LANGEVIN DYNAMICS APPLIED TO HYDROGENS
Info: LANGEVIN PISTON PRESSURE CONTROL ACTIVE
Info:        TARGET PRESSURE IS 1.01325 BAR
Info:     OSCILLATION PERIOD IS 50 FS
Info:             DECAY TIME IS 25 FS
Info:     PISTON TEMPERATURE IS 300 K
Info:       PRESSURE CONTROL IS GROUP-BASED
Info:    INITIAL STRAIN RATE IS 0.000810198 0.000810198 0.000810198
Info:       CELL FLUCTUATION IS ISOTROPIC
Info: PARTICLE MESH EWALD (PME) ACTIVE
Info: PME TOLERANCE               1e-06
Info: PME EWALD COEFFICIENT       0.348832
Info: PME INTERPOLATION ORDER     4
Info: PME GRID DIMENSIONS         36 32 32
Info: PME MAXIMUM GRID SPACING    1
Info: PME CALCULATION WILL BE PERFORMED ON GPU
Info: FULL ELECTROSTATIC EVALUATION FREQUENCY      2
Info: USING VERLET I (r-RESPA) MTS SCHEME.
Info: C1 SPLITTING OF LONG RANGE ELECTROSTATICS
Info: PLACING ATOMS IN PATCHES BY HYDROGEN GROUPS
Info: RIGID BONDS TO HYDROGEN : ALL
Info:         ERROR TOLERANCE : 1e-08
Info:          MAX ITERATIONS : 100
Info: RIGID WATER USING SETTLE ALGORITHM
Info: RANDOM NUMBER SEED     1743996158
Info: USE HYDROGEN BONDS?    NO
Info: Using AMBER format force field!
Info: AMBER PARM FILE        mobley_9897248.prmtop
Info: COORDINATE PDB         mobley_9897248.pdb
Info: Exclusions will be read from PARM file!
Info: SCNB (VDW SCALING)     2
Info: USING ARITHMETIC MEAN TO COMBINE L-J SIGMA PARAMETERS
Info: BINARY COORDINATES     mobley_9897248_equil.coor
Info: SUMMARY OF PARAMETERS:
Info: 10 BONDS
Info: 13 ANGLES
Info:   13 HARMONIC
Info:   0 COSINE-BASED
Info: 9 DIHEDRAL
Info: 0 IMPROPER
Info: 0 CROSSTERM
Info: 0 VDW
Info: 36 VDW_PAIRS
Info: 0 NBTHOLE_PAIRS
Info: To read alchdata from file: mobley_9897248.pdb
Info: To read alchflag data from column: 5
Info: STRUCTURE SUMMARY:
Info: 2912 ATOMS
Info: 2911 BONDS
Info: 49 ANGLES
Info: 90 DIHEDRALS
Info: 0 IMPROPERS
Info: 0 CROSSTERMS
Info: 3016 EXCLUSIONS
Info: 2901 RIGID BONDS
Info: ALCH: 0 ATOMS TO DISAPPEAR IN FINAL STATE
Info: ALCH: 29 ATOMS TO APPEAR IN FINAL STATE
Info: 5835 DEGREES OF FREEDOM
Info: 972 HYDROGEN GROUPS
Info: 4 ATOMS IN LARGEST HYDROGEN GROUP
Info: 972 MIGRATION GROUPS
Info: 4 ATOMS IN LARGEST MIGRATION GROUP
Info: TOTAL MASS = 17467.6 amu
Info: TOTAL CHARGE = 0.000399992 e
Info: MASS DENSITY = 0.966763 g/cm^3
Info: ATOM DENSITY = 0.0970551 atoms/A^3
Info: ADDED 0 IMPLICIT EXCLUSIONS
Info: NONBONDED TABLE R-SQUARED SPACING: 0.0625
Info: NONBONDED TABLE SIZE: 705 POINTS
Info: REMOVING COM VELOCITY 0.0235077 0.142641 -0.0282178
Info: Use 3D box decompostion in PME FFT.
Info: Updated CUDA force table with 4096 elements.
Info: Updated CUDA LJ table with 8 x 8 elements.
Info: Found 30 unique exclusion lists needing 120 bytes
TCL: Running for 1500000 steps
ETITLE: TS BOND ANGLE DIHED IMPRP ELECT VDW BOUNDARY MISC KINETIC TOTAL TEMP POTENTIAL TOTALAVG TEMPAVG PRESSURE GPRESSURE VOLUME PRESSAVG GPRESSAVG
ENERGY: 0 3.9633 11.0405 27.9318 0.0000 -10526.0796 1400.8451 0.0000 0.0000 1778.8904 -7303.4085 306.8306 -9082.2990 -7303.4085 306.8306 -5.3157 70.7737 30003.5674 -5.3157 70.7737
ENERGY: 300000 5.4195 13.2565 25.9240 0.0000 -10524.3033 1406.7180 0.0000 0.0000 1723.5854 -7349.3998 297.2914 -9072.9852 -7295.5013 305.0662 -157.5915 -87.6562 29933.7143 71.7009 127.8230
ENERGY: 600000 2.8220 10.5884 26.1476 0.0000 -10448.8268 1340.4131 0.0000 0.0000 1756.6937 -7312.1620 303.0020 -9068.8557 -7307.0180 303.6307 -682.6013 -534.1898 30114.2679 110.0099 180.4676
ENERGY: 900000 3.2618 12.7232 28.4457 0.0000 -10512.3276 1380.5909 0.0000 0.0000 1764.6425 -7322.6634 304.3731 -9087.3060 -7311.0054 302.6128 -375.1098 -366.6797 30223.2356 -17.7951 49.1090
ENERGY: 1200000 6.1247 12.1593 28.2500 0.0000 -10521.9396 1458.1684 0.0000 0.0000 1718.4479 -7298.7891 296.4053 -9017.2370 -7310.1070 302.1595 256.6066 320.4813 30383.7805 138.5811 206.3167
ENERGY: 1500000 3.0880 14.9724 26.5535 0.0000 -10355.9928 1256.6850 0.0000 0.0000 1735.3540 -7319.3399 299.3213 -9054.6940 -7305.7277 301.1703 -1352.6415 -1294.4488 30361.8943 9.2544 73.2397
TCL: Running FEP window   2: Lambda1 0.95   Lambda2 0.8999999999999999 [dLambda -0.050000000000000044]
TCL: Setting parameter firsttimestep to 0
TCL: Setting parameter alchLambda to 0.95
Info: NONBONDED TABLE R-SQUARED SPACING: 0.0625
Info: NONBONDED TABLE SIZE: 705 POINTS
TCL: Setting parameter alchLambda2 to 0.8999999999999999
Info: NONBONDED TABLE R-SQUARED SPACING: 0.0625
Info: NONBONDED TABLE SIZE: 705 POINTS
TCL: Running for 1500000 steps
ETITLE: TS BOND ANGLE DIHED IMPRP ELECT VDW BOUNDARY MISC KINETIC TOTAL TEMP POTENTIAL TOTALAVG TEMPAVG PRESSURE GPRESSURE VOLUME PRESSAVG GPRESSAVG
ENERGY: 0 3.0880 14.9724 26.5535 0.0000 -10354.4383 1256.8916 0.0000 0.0000 1734.5107 -7318.4222 299.1758 -9052.9328 -7318.4222 299.1758 -1382.2157 -1308.8662 30361.8943 -1382.2157 -1308.8662
ENERGY: 300000 2.5999 12.1149 26.4598 0.0000 -10474.8413 1364.5716 0.0000 0.0000 1700.5646 -7368.5305 293.3207 -9069.0951 -7340.0828 298.6681 -319.9009 -148.5497 29663.1197 -495.6034 -423.0771
ENERGY: 600000 4.1442 21.1240 26.7431 0.0000 -10601.1444 1463.9885 0.0000 0.0000 1733.7837 -7351.3610 299.0504 -9085.1446 -7319.9771 298.0794 2.2386 91.7355 30374.1091 -375.5848 -299.9070
ENERGY: 900000 2.7561 19.0242 26.5438 0.0000 -10576.6315 1442.8446 0.0000 0.0000 1723.6861 -7361.7767 297.3088 -9085.4628 -7330.5824 297.8087 426.8206 536.8059 29507.4530 -278.2851 -202.9898
ENERGY: 1200000 1.5193 11.4331 26.5968 0.0000 -10512.0934 1428.3638 0.0000 0.0000 1764.2914 -7279.8889 304.3125 -9044.1804 -7326.6666 298.3405 325.9691 363.8654 29837.6811 -245.3255 -167.3670
ENERGY: 1500000 1.3459 13.6606 26.3417 0.0000 -10437.5079 1384.6942 0.0000 0.0000 1803.2911 -7208.1744 311.0394 -9011.4655 -7315.3040 299.9397 93.2555 82.3451 30023.1443 -262.7313 -195.1635
TCL: Running FEP window   3: Lambda1 0.8999999999999999 Lambda2 0.8499999999999999 [dLambda -0.050000000000000044]
TCL: Setting parameter firsttimestep to 0
TCL: Setting parameter alchLambda to 0.8999999999999999
Info: NONBONDED TABLE R-SQUARED SPACING: 0.0625
Info: NONBONDED TABLE SIZE: 705 POINTS
TCL: Setting parameter alchLambda2 to 0.8499999999999999
Info: NONBONDED TABLE R-SQUARED SPACING: 0.0625
Info: NONBONDED TABLE SIZE: 705 POINTS
TCL: Running for 1500000 steps
ETITLE: TS BOND ANGLE DIHED IMPRP ELECT VDW BOUNDARY MISC KINETIC TOTAL TEMP POTENTIAL TOTALAVG TEMPAVG PRESSURE GPRESSURE VOLUME PRESSAVG GPRESSAVG
ENERGY: 0 1.3459 13.6606 26.3417 0.0000 -10435.9957 1384.6368 0.0000 0.0000 1802.4284 -7207.5823 310.8906 -9010.0107 -7207.5823 310.8906 -0.5005 65.1748 30023.1443 -0.5005 65.1748
ENERGY: 300000 2.1128 7.1702 25.7353 0.0000 -10432.0097 1397.1431 0.0000 0.0000 1780.0530 -7219.7953 307.0312 -8999.8483 -7289.3452 302.8706 -182.8591 -121.5877 30554.4873 -107.7283 -39.2659
ENERGY: 600000 2.0243 12.7863 25.9973 0.0000 -10561.3360 1460.8567 0.0000 0.0000 1724.7228 -7334.9486 297.4876 -9059.6713 -7314.4074 300.0485 412.8295 459.6476 30211.8546 -37.1113 26.0459
ENERGY: 900000 5.9158 14.9776 29.9236 0.0000 -10711.5808 1497.6292 0.0000 0.0000 1785.3395 -7377.7950 307.9430 -9163.1346 -7325.3909 302.3683 722.7767 764.8441 29907.0848 175.6796 230.0147
ENERGY: 1200000 3.5794 22.6940 28.0192 0.0000 -10408.0343 1292.4604 0.0000 0.0000 1767.4635 -7293.8178 304.8597 -9061.2813 -7324.2587 301.5454 -928.7875 -827.6642 29651.1210 127.1572 183.8628
ENERGY: 1500000 4.3637 11.1246 25.1756 0.0000 -10503.7247 1441.3903 0.0000 0.0000 1701.5888 -7320.0817 293.4973 -9021.6705 -7318.9797 301.3495 558.0787 651.1449 29554.9722 72.9524 130.6388
TCL: Running FEP window   4: Lambda1 0.8499999999999999 Lambda2 0.7999999999999998 [dLambda -0.050000000000000044]
TCL: Setting parameter firsttimestep to 0
TCL: Setting parameter alchLambda to 0.8499999999999999
Info: NONBONDED TABLE R-SQUARED SPACING: 0.0625
Info: NONBONDED TABLE SIZE: 705 POINTS
TCL: Setting parameter alchLambda2 to 0.7999999999999998
Info: NONBONDED TABLE R-SQUARED SPACING: 0.0625
Info: NONBONDED TABLE SIZE: 705 POINTS
TCL: Running for 1500000 steps
ETITLE: TS BOND ANGLE DIHED IMPRP ELECT VDW BOUNDARY MISC KINETIC TOTAL TEMP POTENTIAL TOTALAVG TEMPAVG PRESSURE GPRESSURE VOLUME PRESSAVG GPRESSAVG
ENERGY: 0 4.3637 11.1246 25.1756 0.0000 -10502.8836 1441.9957 0.0000 0.0000 1700.6847 -7319.5392 293.3414 -9020.2240 -7319.5392 293.3414 554.7050 641.2713 29554.9722 554.7050 641.2713
ENERGY: 300000 4.1616 10.3404 27.2997 0.0000 -10457.9893 1426.5857 0.0000 0.0000 1734.3061 -7255.2959 299.1405 -8989.6019 -7306.9551 295.3050 267.2644 365.3060 29855.5616 110.9702 168.3197
ENERGY: 600000 6.1085 11.1641 26.7502 0.0000 -10430.7254 1348.2277 0.0000 0.0000 1787.7121 -7250.7628 308.3522 -9038.4749 -7309.7894 297.3569 -108.4271 -31.8257 29420.6464 7.3747 74.5502
ENERGY: 900000 5.3124 14.0527 29.7584 0.0000 -10498.4294 1385.3042 0.0000 0.0000 1796.9778 -7267.0239 309.9504 -9064.0017 -7291.3460 299.6600 -12.0011 81.1868 29434.2659 -61.1603 13.2095
ENERGY: 1200000 4.1750 17.0962 27.3090 0.0000 -10557.9052 1390.3488 0.0000 0.0000 1760.0288 -7358.9473 303.5773 -9118.9761 -7314.7092 298.3533 -386.0581 -359.6331 30304.5879 -22.1986 47.6504
ENERGY: 1500000 4.9840 8.3186 26.0876 0.0000 -10450.0099 1361.0794 0.0000 0.0000 1769.1985 -7280.3418 305.1589 -9049.5403 -7299.3321 299.9505 -432.6100 -379.8583 29896.2264 -47.4217 15.6796
TCL: Running FEP window   5: Lambda1 0.7999999999999998 Lambda2 0.7499999999999998 [dLambda -0.050000000000000044]
TCL: Setting parameter firsttimestep to 0
TCL: Setting parameter alchLambda to 0.7999999999999998
Info: NONBONDED TABLE R-SQUARED SPACING: 0.0625
Info: NONBONDED TABLE SIZE: 705 POINTS
TCL: Setting parameter alchLambda2 to 0.7499999999999998
Info: NONBONDED TABLE R-SQUARED SPACING: 0.0625
Info: NONBONDED TABLE SIZE: 705 POINTS
TCL: Running for 1500000 steps
ETITLE: TS BOND ANGLE DIHED IMPRP ELECT VDW BOUNDARY MISC KINETIC TOTAL TEMP POTENTIAL TOTALAVG TEMPAVG PRESSURE GPRESSURE VOLUME PRESSAVG GPRESSAVG
ENERGY: 0 4.9840 8.3185 26.0876 0.0000 -10448.5862 1361.2470 0.0000 0.0000 1768.3357 -7279.6133 305.0101 -9047.9491 -7279.6133 305.0101 -485.1406 -391.4400 29896.2264 -485.1406 -391.4400
ENERGY: 300000 3.8397 9.3061 26.5753 0.0000 -10552.8617 1448.5057 0.0000 0.0000 1735.4736 -7329.1613 299.3419 -9064.6349 -7321.8659 301.2843 351.7927 426.8315 29811.2862 -105.7334 -45.7123
ENERGY: 600000 2.2411 13.8514 27.0272 0.0000 -10382.9435 1299.2976 0.0000 0.0000 1780.4661 -7260.0600 307.1024 -9040.5261 -7301.6765 303.3051 -897.0013 -841.0058 30211.7381 -246.3700 -181.7677
ENERGY: 900000 4.4652 13.4711 29.6372 0.0000 -10635.2359 1504.9579 0.0000 0.0000 1714.9250 -7367.7794 295.7976 -9082.7044 -7297.2328 303.6420 921.6115 998.7085 29466.0274 -87.6297 -13.4792
ENERGY: 1200000 4.8236 12.0488 26.8598 0.0000 -10489.8109 1414.9285 0.0000 0.0000 1745.4797 -7285.6706 301.0678 -9031.1503 -7301.3381 303.0664 153.0888 180.9070 29902.7972 -24.7475 46.2382
ENERGY: 1500000 3.3557 15.8548 27.8682 0.0000 -10484.6478 1374.4242 0.0000 0.0000 1698.4931 -7364.6519 292.9634 -9063.1450 -7306.7274 302.5023 -257.0588 -250.3910 29956.4095 -85.7044 -17.5765
TCL: Running FEP window   6: Lambda1 0.7499999999999998 Lambda2 0.6999999999999997 [dLambda -0.050000000000000044]
TCL: Setting parameter firsttimestep to 0
TCL: Setting parameter alchLambda to 0.7499999999999998
Info: NONBONDED TABLE R-SQUARED SPACING: 0.0625
Info: NONBONDED TABLE SIZE: 705 POINTS
TCL: Setting parameter alchLambda2 to 0.6999999999999997
Info: NONBONDED TABLE R-SQUARED SPACING: 0.0625
Info: NONBONDED TABLE SIZE: 705 POINTS
TCL: Running for 1500000 steps
ETITLE: TS BOND ANGLE DIHED IMPRP ELECT VDW BOUNDARY MISC KINETIC TOTAL TEMP POTENTIAL TOTALAVG TEMPAVG PRESSURE GPRESSURE VOLUME PRESSAVG GPRESSAVG
ENERGY: 0 3.3557 15.8548 27.8682 0.0000 -10482.9727 1374.0991 0.0000 0.0000 1697.6314 -7364.1636 292.8147 -9061.7950 -7364.1636 292.8147 -344.4318 -263.7336 29956.4095 -344.4318 -263.7336
ENERGY: 300000 2.3233 13.3494 31.1924 0.0000 -10534.0386 1473.1599 0.0000 0.0000 1761.2296 -7252.7839 303.7844 -9014.0135 -7271.8460 302.3462 705.0878 812.3219 29874.1409 11.4654 88.8419
ENERGY: 600000 3.6788 17.8959 27.8139 0.0000 -10530.5053 1487.7800 0.0000 0.0000 1724.7482 -7268.5886 297.4920 -8993.3368 -7284.8900 301.1941 897.2682 992.5412 29766.8807 134.1327 209.7866
ENERGY: 900000 3.7609 8.6860 27.8360 0.0000 -10502.8656 1430.0472 0.0000 0.0000 1752.1603 -7280.3752 302.2201 -9032.5355 -7287.9938 301.8224 319.9948 396.6879 29777.0740 14.5112 74.2710
ENERGY: 1200000 2.1393 13.9336 29.8926 0.0000 -10510.3151 1418.3240 0.0000 0.0000 1770.0856 -7275.9400 305.3119 -9046.0256 -7296.2329 301.6265 194.7374 220.1524 30063.7917 -35.9055 20.3150
ENERGY: 1500000 1.1182 19.7319 26.2147 0.0000 -10472.9565 1438.3133 0.0000 0.0000 1759.6244 -7227.9540 303.5075 -8987.5784 -7286.9427 302.3191 603.7050 677.1653 29660.7670 2.6541 54.1760
TCL: Running FEP window   7: Lambda1 0.6999999999999997 Lambda2 0.6499999999999997 [dLambda -0.050000000000000044]
TCL: Setting parameter firsttimestep to 0
TCL: Setting parameter alchLambda to 0.6999999999999997
Info: NONBONDED TABLE R-SQUARED SPACING: 0.0625
Info: NONBONDED TABLE SIZE: 705 POINTS
TCL: Setting parameter alchLambda2 to 0.6499999999999997
Info: NONBONDED TABLE R-SQUARED SPACING: 0.0625
Info: NONBONDED TABLE SIZE: 705 POINTS
TCL: Running for 1500000 steps
ETITLE: TS BOND ANGLE DIHED IMPRP ELECT VDW BOUNDARY MISC KINETIC TOTAL TEMP POTENTIAL TOTALAVG TEMPAVG PRESSURE GPRESSURE VOLUME PRESSAVG GPRESSAVG
ENERGY: 0 1.1182 19.7319 26.2147 0.0000 -10471.3487 1438.2200 0.0000 0.0000 1758.7276 -7227.3363 303.3529 -8986.0640 -7227.3363 303.3529 589.0452 671.1598 29660.7670 589.0452 671.1598
ENERGY: 300000 3.1870 13.6730 27.6179 0.0000 -10575.6374 1411.9346 0.0000 0.0000 1741.4059 -7377.8189 300.3651 -9119.2248 -7339.9559 299.8990 -77.0105 -47.3262 29842.5397 -144.9403 -84.8640
ENERGY: 600000 3.7607 11.0809 28.2141 0.0000 -10541.5238 1459.9324 0.0000 0.0000 1702.7435 -7335.7922 293.6965 -9038.5357 -7316.7880 300.4995 373.6017 373.6924 30203.1624 -33.8705 15.2301
ENERGY: 900000 2.5259 13.3408 29.0847 0.0000 -10683.0573 1463.0526 0.0000 0.0000 1752.4827 -7422.5706 302.2757 -9175.0533 -7325.2526 300.9697 22.0684 98.8560 29839.7756 -98.8206 -42.3839
ENERGY: 1200000 0.6901 8.4396 26.4888 0.0000 -10439.5105 1325.3719 0.0000 0.0000 1698.7535 -7379.7666 293.0083 -9078.5201 -7333.2795 300.5712 -723.2091 -688.2395 29914.4141 -117.8602 -62.3713
ENERGY: 1500000 3.1732 16.0752 25.9988 0.0000 -10622.5380 1509.5614 0.0000 0.0000 1722.6849 -7345.0445 297.1361 -9067.7294 -7325.8553 300.3574 906.9454 892.8041 30187.8592 -50.0651 0.4788
TCL: Running FEP window   8: Lambda1 0.6499999999999997 Lambda2 0.5999999999999996 [dLambda -0.050000000000000044]
TCL: Setting parameter firsttimestep to 0
TCL: Setting parameter alchLambda to 0.6499999999999997
Info: NONBONDED TABLE R-SQUARED SPACING: 0.0625
Info: NONBONDED TABLE SIZE: 705 POINTS
TCL: Setting parameter alchLambda2 to 0.5999999999999996
Info: NONBONDED TABLE R-SQUARED SPACING: 0.0625
Info: NONBONDED TABLE SIZE: 705 POINTS
TCL: Running for 1500000 steps
ETITLE: TS BOND ANGLE DIHED IMPRP ELECT VDW BOUNDARY MISC KINETIC TOTAL TEMP POTENTIAL TOTALAVG TEMPAVG PRESSURE GPRESSURE VOLUME PRESSAVG GPRESSAVG
ENERGY: 0 3.1732 16.0752 25.9988 0.0000 -10620.9985 1509.5705 0.0000 0.0000 1721.8251 -7344.3557 296.9878 -9066.1808 -7344.3557 296.9878 800.8917 885.0298 30187.8592 800.8917 885.0298
ENERGY: 300000 2.9195 10.8734 29.0259 0.0000 -10314.9272 1312.1739 0.0000 0.0000 1763.4191 -7196.5153 304.1621 -8959.9344 -7276.3176 301.1176 -535.0728 -508.1703 30142.6145 88.8117 161.9318
ENERGY: 600000 1.9748 10.9014 25.4281 0.0000 -10443.3838 1334.4776 0.0000 0.0000 1694.6625 -7375.9395 292.3026 -9070.6020 -7297.2643 301.9748 -724.5880 -626.6568 30036.3148 67.2180 142.0873
ENERGY: 900000 3.9170 7.6950 29.0281 0.0000 -10418.4601 1347.6446 0.0000 0.0000 1729.9070 -7300.2683 298.3818 -9030.1753 -7298.7927 302.1349 -229.5709 -241.6642 29347.5695 70.5392 133.4359
ENERGY: 1200000 3.6241 10.5011 31.4567 0.0000 -10440.9985 1404.5903 0.0000 0.0000 1702.5181 -7288.3081 293.6576 -8990.8262 -7303.5509 300.0276 81.5516 122.1373 30207.6400 87.7434 148.7600
ENERGY: 1500000 4.8561 12.1057 26.6069 0.0000 -10566.4852 1425.1103 0.0000 0.0000 1773.9965 -7323.8096 305.9865 -9097.8061 -7302.3675 301.0288 64.2369 146.3411 29851.8641 112.5708 174.0787
TCL: Running FEP window   9: Lambda1 0.5999999999999996 Lambda2 0.5499999999999996 [dLambda -0.050000000000000044]
TCL: Setting parameter firsttimestep to 0
TCL: Setting parameter alchLambda to 0.5999999999999996
Info: NONBONDED TABLE R-SQUARED SPACING: 0.0625
Info: NONBONDED TABLE SIZE: 705 POINTS
TCL: Setting parameter alchLambda2 to 0.5499999999999996
Info: NONBONDED TABLE R-SQUARED SPACING: 0.0625
Info: NONBONDED TABLE SIZE: 705 POINTS
TCL: Running for 1500000 steps
ETITLE: TS BOND ANGLE DIHED IMPRP ELECT VDW BOUNDARY MISC KINETIC TOTAL TEMP POTENTIAL TOTALAVG TEMPAVG PRESSURE GPRESSURE VOLUME PRESSAVG GPRESSAVG
ENERGY: 0 4.8561 12.1057 26.6069 0.0000 -10566.7313 1425.4439 0.0000 0.0000 1773.1009 -7324.6178 305.8320 -9097.7188 -7324.6178 305.8320 66.7517 142.9035 29851.8641 66.7517 142.9035
ENERGY: 300000 2.6578 13.0806 26.3062 0.0000 -10469.3221 1403.8820 0.0000 0.0000 1746.9711 -7276.4244 301.3250 -9023.3955 -7299.1071 302.4482 -229.2086 -150.1858 30153.6055 -230.0953 -148.3515
ENERGY: 600000 5.1911 13.1174 27.0039 0.0000 -10508.2697 1428.4695 0.0000 0.0000 1761.3513 -7273.1365 303.8054 -9034.4878 -7278.4449 303.8917 192.8558 229.1099 30048.3315 -21.8605 39.1433
ENERGY: 900000 5.3950 17.0122 26.7705 0.0000 -10682.8959 1555.2728 0.0000 0.0000 1681.0421 -7397.4031 289.9533 -9078.4452 -7290.8507 302.1171 1112.0296 1143.9128 29618.8458 85.2786 146.0451
ENERGY: 1200000 3.2881 10.6935 28.6483 0.0000 -10722.3488 1541.4509 0.0000 0.0000 1752.8315 -7385.4365 302.3359 -9138.2680 -7294.0975 302.3626 812.0155 822.0067 29752.3539 131.5903 183.1235
ENERGY: 1500000 3.2843 12.9416 28.7174 0.0000 -10596.7876 1456.3937 0.0000 0.0000 1727.0085 -7368.4422 297.8818 -9095.4506 -7300.8984 301.2758 -119.7975 -51.1764 30160.9914 10.9459 63.2356
TCL: Running FEP window  10: Lambda1 0.5499999999999996 Lambda2 0.4999999999999996 [dLambda -0.04999999999999999]
TCL: Setting parameter firsttimestep to 0
TCL: Setting parameter alchLambda to 0.5499999999999996
Info: NONBONDED TABLE R-SQUARED SPACING: 0.0625
Info: NONBONDED TABLE SIZE: 705 POINTS
TCL: Setting parameter alchLambda2 to 0.4999999999999996
Info: NONBONDED TABLE R-SQUARED SPACING: 0.0625
Info: NONBONDED TABLE SIZE: 705 POINTS
TCL: Running for 1500000 steps
ETITLE: TS BOND ANGLE DIHED IMPRP ELECT VDW BOUNDARY MISC KINETIC TOTAL TEMP POTENTIAL TOTALAVG TEMPAVG PRESSURE GPRESSURE VOLUME PRESSAVG GPRESSAVG
ENERGY: 0 3.2843 12.9416 28.7174 0.0000 -10596.5707 1457.2387 0.0000 0.0000 1726.1679 -7368.2208 297.7368 -9094.3887 -7368.2208 297.7368 -123.3354 -48.6480 30160.9914 -123.3354 -48.6480
ENERGY: 300000 1.5463 12.3688 26.2692 0.0000 -10426.5390 1357.4730 0.0000 0.0000 1721.9835 -7306.8982 297.0151 -9028.8817 -7331.6431 300.3787 -472.8476 -405.0027 30120.8729 -108.8593 -56.7170
ENERGY: 600000 5.8236 15.9000 28.3644 0.0000 -10406.6991 1375.0745 0.0000 0.0000 1737.6697 -7243.8670 299.7207 -8981.5366 -7302.1062 300.6012 -436.3978 -368.5571 30179.7853 -61.1912 8.0230
ENERGY: 900000 4.3092 17.6063 28.1828 0.0000 -10521.3675 1384.8261 0.0000 0.0000 1710.0550 -7376.3883 294.9576 -9086.4432 -7293.9514 300.6521 -385.5719 -289.7984 29715.7926 -45.0714 28.5888
ENERGY: 1200000 5.6811 11.6208 29.2383 0.0000 -10515.3194 1430.5972 0.0000 0.0000 1756.3803 -7281.8016 302.9480 -9038.1819 -7296.7921 300.7209 154.2751 259.6403 29744.2452 -14.6192 57.9104
ENERGY: 1500000 3.4750 14.4312 24.4811 0.0000 -10464.1673 1426.3988 0.0000 0.0000 1720.4539 -7274.9273 296.7513 -8995.3812 -7293.0374 301.8067 166.8125 252.4686 29782.3352 53.5636 126.5652
TCL: Running FEP window  11: Lambda1 0.4999999999999996 Lambda2 0.4499999999999996 [dLambda -0.04999999999999999]
TCL: Setting parameter firsttimestep to 0
TCL: Setting parameter alchLambda to 0.4999999999999996
Info: NONBONDED TABLE R-SQUARED SPACING: 0.0625
Info: NONBONDED TABLE SIZE: 705 POINTS
TCL: Setting parameter alchLambda2 to 0.4499999999999996
Info: NONBONDED TABLE R-SQUARED SPACING: 0.0625
Info: NONBONDED TABLE SIZE: 705 POINTS
TCL: Running for 1500000 steps
ETITLE: TS BOND ANGLE DIHED IMPRP ELECT VDW BOUNDARY MISC KINETIC TOTAL TEMP POTENTIAL TOTALAVG TEMPAVG PRESSURE GPRESSURE VOLUME PRESSAVG GPRESSAVG
ENERGY: 0 3.4750 14.4312 24.4811 0.0000 -10463.3486 1425.9343 0.0000 0.0000 1719.5624 -7275.4646 296.5975 -8995.0270 -7275.4646 296.5975 155.5405 241.9817 29782.3352 155.5405 241.9817
ENERGY: 300000 4.6178 12.7884 25.2999 0.0000 -10371.9262 1280.8792 0.0000 0.0000 1753.0506 -7295.2903 302.3737 -9048.3409 -7290.7996 301.5165 -1028.1267 -984.5203 30128.5293 -204.4959 -145.0161
ENERGY: 600000 2.6616 12.1760 30.5336 0.0000 -10502.4175 1392.7446 0.0000 0.0000 1723.3485 -7340.9531 297.2505 -9064.3016 -7304.8836 299.0479 -242.3700 -219.9840 29973.4075 -249.6913 -215.0207
ENERGY: 900000 3.1084 9.7474 25.1750 0.0000 -10566.7761 1440.7497 0.0000 0.0000 1724.3715 -7363.6241 297.4270 -9087.9956 -7309.7223 299.2857 172.5865 254.4684 29861.3735 -218.9117 -168.5134
ENERGY: 1200000 3.6717 11.6571 28.1246 0.0000 -10415.7622 1357.4842 0.0000 0.0000 1760.2740 -7254.5507 303.6196 -9014.8247 -7296.5800 300.2585 -212.8716 -146.0408 29830.8908 -304.7613 -253.7047
ENERGY: 1500000 2.1318 10.6747 25.5999 0.0000 -10432.7759 1382.7920 0.0000 0.0000 1779.1825 -7232.3950 306.8810 -9011.5775 -7295.5931 300.1849 114.4578 121.9621 29730.5979 -236.1884 -185.5218
TCL: Running FEP window  12: Lambda1 0.4499999999999996 Lambda2 0.39999999999999963 [dLambda -0.04999999999999999]
TCL: Setting parameter firsttimestep to 0
TCL: Setting parameter alchLambda to 0.4499999999999996
Info: NONBONDED TABLE R-SQUARED SPACING: 0.0625
Info: NONBONDED TABLE SIZE: 705 POINTS
TCL: Setting parameter alchLambda2 to 0.39999999999999963
Info: NONBONDED TABLE R-SQUARED SPACING: 0.0625
Info: NONBONDED TABLE SIZE: 705 POINTS
TCL: Running for 1500000 steps
ETITLE: TS BOND ANGLE DIHED IMPRP ELECT VDW BOUNDARY MISC KINETIC TOTAL TEMP POTENTIAL TOTALAVG TEMPAVG PRESSURE GPRESSURE VOLUME PRESSAVG GPRESSAVG
ENERGY: 0 2.1318 10.6747 25.5999 0.0000 -10432.7750 1383.3277 0.0000 0.0000 1778.3002 -7232.7407 306.7288 -9011.0409 -7232.7407 306.7288 33.3501 117.9469 29730.5979 33.3501 117.9469
ENERGY: 300000 2.9976 11.1709 28.5229 0.0000 -10335.1760 1387.5539 0.0000 0.0000 1784.5860 -7120.3446 307.8130 -8904.9306 -7234.7206 304.2540 171.8860 177.5368 30156.6648 -160.9049 -113.9021
ENERGY: 600000 4.8147 14.2083 28.5654 0.0000 -10550.4473 1434.9021 0.0000 0.0000 1765.8448 -7302.1120 304.5805 -9067.9568 -7276.6442 305.0636 24.3185 38.2022 30303.4238 6.3561 42.4465
ENERGY: 900000 3.6814 13.7982 26.2867 0.0000 -10292.0604 1292.3123 0.0000 0.0000 1701.6773 -7254.3046 293.5126 -8955.9818 -7276.5236 302.1225 -920.9655 -837.9207 30324.3650 -154.6905 -108.2870
ENERGY: 1200000 1.7724 11.3233 28.5322 0.0000 -10493.9751 1430.6912 0.0000 0.0000 1730.1202 -7291.5359 298.4185 -9021.6561 -7276.3381 301.8141 384.1220 446.5332 29495.0673 -55.5830 -6.8214
ENERGY: 1500000 3.0585 11.9330 27.6248 0.0000 -10365.6548 1332.8491 0.0000 0.0000 1712.6762 -7277.5132 295.4097 -8990.1894 -7281.7164 300.5599 -537.7030 -484.8977 29882.5898 -61.0239 -11.6896
TCL: Running FEP window  13: Lambda1 0.39999999999999963 Lambda2 0.34999999999999964 [dLambda -0.04999999999999999]
TCL: Setting parameter firsttimestep to 0
TCL: Setting parameter alchLambda to 0.39999999999999963
Info: NONBONDED TABLE R-SQUARED SPACING: 0.0625
Info: NONBONDED TABLE SIZE: 705 POINTS
TCL: Setting parameter alchLambda2 to 0.34999999999999964
Info: NONBONDED TABLE R-SQUARED SPACING: 0.0625
Info: NONBONDED TABLE SIZE: 705 POINTS
TCL: Running for 1500000 steps
ETITLE: TS BOND ANGLE DIHED IMPRP ELECT VDW BOUNDARY MISC KINETIC TOTAL TEMP POTENTIAL TOTALAVG TEMPAVG PRESSURE GPRESSURE VOLUME PRESSAVG GPRESSAVG
ENERGY: 0 3.0585 11.9330 27.6248 0.0000 -10365.6551 1333.1290 0.0000 0.0000 1711.7930 -7278.1168 295.2574 -8989.9098 -7278.1168 295.2574 -549.0484 -487.5873 29882.5898 -549.0484 -487.5873
ENERGY: 300000 2.6092 17.1134 26.1769 0.0000 -10532.6085 1442.6579 0.0000 0.0000 1711.5497 -7332.5015 295.2154 -9044.0512 -7344.0682 295.1106 -69.7218 -58.9341 30188.5338 -4.1728 44.8299
ENERGY: 600000 5.4430 16.3993 26.4498 0.0000 -10413.9074 1336.9786 0.0000 0.0000 1773.8220 -7254.8146 305.9564 -9028.6367 -7321.9230 297.5751 -494.6370 -411.3107 29795.5948 -187.0224 -135.0599
ENERGY: 900000 4.5161 11.7825 31.0408 0.0000 -10670.5482 1528.8958 0.0000 0.0000 1724.0254 -7370.2876 297.3673 -9094.3130 -7337.8417 298.2107 1083.4554 1185.9223 29557.7163 -20.1157 43.5625
ENERGY: 1200000 3.1116 12.6782 27.6880 0.0000 -10535.4270 1451.1924 0.0000 0.0000 1746.2574 -7294.4995 301.2019 -9040.7568 -7335.4276 298.8746 358.3870 394.7828 29653.9713 -103.2908 -38.1684
ENERGY: 1500000 4.9986 18.2610 25.3265 0.0000 -10568.1111 1391.9116 0.0000 0.0000 1788.3251 -7339.2882 308.4580 -9127.6133 -7331.1432 300.2133 -440.5467 -352.9915 29751.5827 -152.4672 -82.5438
TCL: Running FEP window  14: Lambda1 0.34999999999999964 Lambda2 0.29999999999999966 [dLambda -0.04999999999999999]
TCL: Setting parameter firsttimestep to 0
TCL: Setting parameter alchLambda to 0.34999999999999964
Info: NONBONDED TABLE R-SQUARED SPACING: 0.0625
Info: NONBONDED TABLE SIZE: 705 POINTS
TCL: Setting parameter alchLambda2 to 0.29999999999999966
Info: NONBONDED TABLE R-SQUARED SPACING: 0.0625
Info: NONBONDED TABLE SIZE: 705 POINTS
TCL: Running for 1500000 steps
ETITLE: TS BOND ANGLE DIHED IMPRP ELECT VDW BOUNDARY MISC KINETIC TOTAL TEMP POTENTIAL TOTALAVG TEMPAVG PRESSURE GPRESSURE VOLUME PRESSAVG GPRESSAVG
ENERGY: 0 4.9986 18.2610 25.3265 0.0000 -10568.1110 1392.1438 0.0000 0.0000 1787.4392 -7339.9419 308.3052 -9127.3811 -7339.9419 308.3052 -448.8586 -358.6978 29751.5827 -448.8586 -358.6978
ENERGY: 300000 2.4358 10.4704 28.3412 0.0000 -10400.9932 1335.2753 0.0000 0.0000 1762.8697 -7261.6007 304.0673 -9024.4704 -7286.1541 305.2798 -537.7532 -534.0140 30053.4289 -335.6251 -274.6528
ENERGY: 600000 3.8237 15.3353 27.8132 0.0000 -10488.3037 1437.5390 0.0000 0.0000 1738.1827 -7265.6098 299.8092 -9003.7925 -7301.6456 302.7074 302.0425 379.8358 29846.9964 -63.1925 9.7472
ENERGY: 900000 3.9511 15.5245 26.6094 0.0000 -10478.4495 1423.8800 0.0000 0.0000 1723.2439 -7285.2405 297.2325 -9008.4844 -7295.3663 302.3385 92.8844 82.3572 29989.3571 -27.8146 36.9266
ENERGY: 1200000 2.9311 10.1819 26.1157 0.0000 -10415.3689 1406.9031 0.0000 0.0000 1717.9975 -7251.2395 296.3276 -8969.2371 -7307.0748 300.9369 3.1290 16.6765 30050.7905 51.3694 112.1942
ENERGY: 1500000 1.6586 12.6656 27.7092 0.0000 -10546.5309 1401.7069 0.0000 0.0000 1704.1681 -7398.6227 293.9422 -9102.7907 -7312.8298 299.9511 -266.7899 -178.8838 29825.6562 -6.1539 47.1721
TCL: Running FEP window  15: Lambda1 0.29999999999999966 Lambda2 0.24999999999999967 [dLambda -0.04999999999999999]
TCL: Setting parameter firsttimestep to 0
TCL: Setting parameter alchLambda to 0.29999999999999966
Info: NONBONDED TABLE R-SQUARED SPACING: 0.0625
Info: NONBONDED TABLE SIZE: 705 POINTS
TCL: Setting parameter alchLambda2 to 0.24999999999999967
Info: NONBONDED TABLE R-SQUARED SPACING: 0.0625
Info: NONBONDED TABLE SIZE: 705 POINTS
TCL: Running for 1500000 steps
ETITLE: TS BOND ANGLE DIHED IMPRP ELECT VDW BOUNDARY MISC KINETIC TOTAL TEMP POTENTIAL TOTALAVG TEMPAVG PRESSURE GPRESSURE VOLUME PRESSAVG GPRESSAVG
ENERGY: 0 1.6586 12.6656 27.7092 0.0000 -10546.5314 1401.7927 0.0000 0.0000 1703.3141 -7399.3913 293.7949 -9102.7054 -7399.3913 293.7949 -272.9330 -186.6266 29825.6562 -272.9330 -186.6266
ENERGY: 300000 4.7436 13.7273 27.5657 0.0000 -10432.7768 1353.8722 0.0000 0.0000 1758.1599 -7274.7081 303.2550 -9032.8681 -7330.2276 299.5826 -420.1158 -403.8801 30070.6212 -217.5070 -188.0563
ENERGY: 600000 3.9079 11.4959 27.4509 0.0000 -10412.6177 1307.5664 0.0000 0.0000 1732.7114 -7329.4851 298.8655 -9062.1965 -7324.7818 301.1053 -1002.4524 -938.8816 30065.1546 -265.1611 -211.3046
ENERGY: 900000 1.6857 17.5057 29.6154 0.0000 -10612.1103 1509.6219 0.0000 0.0000 1775.2607 -7278.4210 306.2046 -9053.6817 -7315.4351 301.2540 790.6519 874.3295 29756.3396 -238.5672 -179.6726
ENERGY: 1200000 1.6501 9.8810 25.9859 0.0000 -10585.2760 1430.5022 0.0000 0.0000 1758.5570 -7358.6997 303.3234 -9117.2567 -7322.4891 301.4276 164.7348 277.3251 29459.7733 -177.6130 -121.4536
ENERGY: 1500000 1.9043 10.9090 24.8127 0.0000 -10504.8663 1390.3230 0.0000 0.0000 1739.2403 -7337.6770 299.9916 -9076.9173 -7322.1968 300.9468 -352.2840 -334.3247 30034.3143 -184.1178 -133.2897
TCL: Running FEP window  16: Lambda1 0.24999999999999967 Lambda2 0.19999999999999968 [dLambda -0.04999999999999999]
TCL: Setting parameter firsttimestep to 0
TCL: Setting parameter alchLambda to 0.24999999999999967
Info: NONBONDED TABLE R-SQUARED SPACING: 0.0625
Info: NONBONDED TABLE SIZE: 705 POINTS
TCL: Setting parameter alchLambda2 to 0.19999999999999968
Info: NONBONDED TABLE R-SQUARED SPACING: 0.0625
Info: NONBONDED TABLE SIZE: 705 POINTS
TCL: Running for 1500000 steps
ETITLE: TS BOND ANGLE DIHED IMPRP ELECT VDW BOUNDARY MISC KINETIC TOTAL TEMP POTENTIAL TOTALAVG TEMPAVG PRESSURE GPRESSURE VOLUME PRESSAVG GPRESSAVG
ENERGY: 0 1.9043 10.9090 24.8127 0.0000 -10504.8675 1390.2467 0.0000 0.0000 1738.3812 -7338.6136 299.8434 -9076.9948 -7338.6136 299.8434 -426.7582 -343.4952 30034.3143 -426.7582 -343.4952
ENERGY: 300000 3.1582 15.3080 27.8336 0.0000 -10695.5507 1528.4960 0.0000 0.0000 1727.8904 -7392.8645 298.0339 -9120.7549 -7338.5005 301.0107 825.0720 830.3293 29571.7502 223.0678 276.5993
ENERGY: 600000 5.9436 9.7859 26.3903 0.0000 -10475.2423 1377.3892 0.0000 0.0000 1747.8270 -7307.9064 301.4727 -9055.7334 -7322.2321 301.8124 -399.3033 -290.3024 29717.7105 -71.1290 -13.8048
ENERGY: 900000 5.7664 16.5933 29.4284 0.0000 -10392.6459 1378.5607 0.0000 0.0000 1726.9255 -7235.3716 297.8675 -8962.2971 -7306.9051 301.3550 -323.5152 -297.3451 30072.4367 -102.0917 -43.9362
ENERGY: 1200000 4.2774 14.6657 27.1117 0.0000 -10474.5400 1437.9625 0.0000 0.0000 1742.3685 -7248.1543 300.5312 -8990.5227 -7292.2116 302.3888 138.9547 246.6767 30088.9455 -111.1576 -47.6425
ENERGY: 1500000 4.0579 14.1868 25.3068 0.0000 -10501.6582 1498.1817 0.0000 0.0000 1761.3467 -7198.5782 303.8046 -8959.9250 -7288.2714 302.5392 758.4098 815.7428 30046.0863 -55.2739 12.0009
TCL: Running FEP window  17: Lambda1 0.19999999999999968 Lambda2 0.1499999999999997 [dLambda -0.04999999999999999]
TCL: Setting parameter firsttimestep to 0
TCL: Setting parameter alchLambda to 0.19999999999999968
Info: NONBONDED TABLE R-SQUARED SPACING: 0.0625
Info: NONBONDED TABLE SIZE: 705 POINTS
TCL: Setting parameter alchLambda2 to 0.1499999999999997
Info: NONBONDED TABLE R-SQUARED SPACING: 0.0625
Info: NONBONDED TABLE SIZE: 705 POINTS
TCL: Running for 1500000 steps
ETITLE: TS BOND ANGLE DIHED IMPRP ELECT VDW BOUNDARY MISC KINETIC TOTAL TEMP POTENTIAL TOTALAVG TEMPAVG PRESSURE GPRESSURE VOLUME PRESSAVG GPRESSAVG
ENERGY: 0 4.0579 14.1868 25.3068 0.0000 -10501.6586 1497.3458 0.0000 0.0000 1760.4516 -7200.3096 303.6502 -8960.7612 -7200.3096 303.6502 705.6200 805.9065 30046.0863 705.6200 805.9065
ENERGY: 300000 1.0367 17.1802 27.0555 0.0000 -10550.8788 1414.8324 0.0000 0.0000 1767.4050 -7323.3690 304.8496 -9090.7740 -7299.5586 305.2000 327.3970 416.2013 29184.9774 -47.9942 41.1863
ENERGY: 600000 2.0111 13.2631 25.8788 0.0000 -10525.4924 1477.6432 0.0000 0.0000 1715.0490 -7291.6473 295.8190 -9006.6963 -7304.9889 300.2898 774.4847 843.8870 29432.6373 -9.0920 69.0213
ENERGY: 900000 6.1709 14.0219 25.2393 0.0000 -10461.6094 1383.7192 0.0000 0.0000 1793.6840 -7238.7741 309.3823 -9032.4581 -7291.1891 301.1803 -424.5471 -315.4831 30066.3360 -102.3335 -26.2737
ENERGY: 1200000 2.6309 11.1015 28.1117 0.0000 -10523.6177 1468.4973 0.0000 0.0000 1724.5324 -7288.7440 297.4547 -9013.2764 -7300.5445 299.5872 347.8111 444.8873 29766.2604 -84.9475 -14.7256
ENERGY: 1500000 3.6337 12.0498 26.4686 0.0000 -10560.1473 1459.5936 0.0000 0.0000 1732.1900 -7326.2115 298.7756 -9058.4016 -7303.5245 299.7269 573.2209 610.0887 29565.7132 -11.6534 56.5510
TCL: Running FEP window  18: Lambda1 0.1499999999999997 Lambda2 0.09999999999999969 [dLambda -0.05 ]
TCL: Setting parameter firsttimestep to 0
TCL: Setting parameter alchLambda to 0.1499999999999997
Info: NONBONDED TABLE R-SQUARED SPACING: 0.0625
Info: NONBONDED TABLE SIZE: 705 POINTS
TCL: Setting parameter alchLambda2 to 0.09999999999999969
Info: NONBONDED TABLE R-SQUARED SPACING: 0.0625
Info: NONBONDED TABLE SIZE: 705 POINTS
TCL: Running for 1500000 steps
ETITLE: TS BOND ANGLE DIHED IMPRP ELECT VDW BOUNDARY MISC KINETIC TOTAL TEMP POTENTIAL TOTALAVG TEMPAVG PRESSURE GPRESSURE VOLUME PRESSAVG GPRESSAVG
ENERGY: 0 3.6337 12.0498 26.4686 0.0000 -10560.1471 1459.6780 0.0000 0.0000 1731.3275 -7326.9894 298.6268 -9058.3170 -7326.9894 298.6268 525.5927 601.2692 29565.7132 525.5927 601.2692
ENERGY: 300000 2.3692 11.4827 26.2186 0.0000 -10523.3460 1379.9265 0.0000 0.0000 1749.6348 -7353.7141 301.7845 -9103.3489 -7353.0282 296.2113 -619.8661 -577.5960 30096.6499 -23.3180 32.8134
ENERGY: 600000 3.1089 14.2142 28.1876 0.0000 -10479.1185 1406.9857 0.0000 0.0000 1721.2697 -7305.3523 296.8920 -9026.6220 -7344.4566 296.4186 -218.8171 -132.8747 29932.8800 -119.7153 -55.6261
ENERGY: 900000 3.4632 13.3189 26.9282 0.0000 -10448.2212 1324.6513 0.0000 0.0000 1727.0792 -7352.7805 297.8940 -9079.8597 -7329.1804 297.6776 -1016.3506 -870.1568 29635.9036 -111.3717 -39.2798
ENERGY: 1200000 3.6456 13.5719 28.2789 0.0000 -10489.2394 1448.9142 0.0000 0.0000 1771.1566 -7223.6721 305.4967 -8994.8287 -7312.0548 298.9594 499.7007 540.1472 29686.9391 -82.6630 -9.2631
ENERGY: 1500000 3.4839 11.5816 28.7618 0.0000 -10660.8032 1497.1640 0.0000 0.0000 1761.3664 -7358.4454 303.8080 -9119.8118 -7310.0217 299.8079 785.3304 880.5038 29361.5969 -86.8834 -11.5221
TCL: Running FEP window  19: Lambda1 0.09999999999999969 Lambda2 0.049999999999999684 [dLambda -0.05 ]
TCL: Setting parameter firsttimestep to 0
TCL: Setting parameter alchLambda to 0.09999999999999969
Info: NONBONDED TABLE R-SQUARED SPACING: 0.0625
Info: NONBONDED TABLE SIZE: 705 POINTS
TCL: Setting parameter alchLambda2 to 0.049999999999999684
Info: NONBONDED TABLE R-SQUARED SPACING: 0.0625
Info: NONBONDED TABLE SIZE: 705 POINTS
TCL: Running for 1500000 steps
ETITLE: TS BOND ANGLE DIHED IMPRP ELECT VDW BOUNDARY MISC KINETIC TOTAL TEMP POTENTIAL TOTALAVG TEMPAVG PRESSURE GPRESSURE VOLUME PRESSAVG GPRESSAVG
ENERGY: 0 3.4839 11.5816 28.7618 0.0000 -10660.8034 1497.1549 0.0000 0.0000 1760.4969 -7359.3242 303.6580 -9119.8211 -7359.3242 303.6580 773.0038 875.2187 29361.5969 773.0038 875.2187
ENERGY: 300000 1.5187 13.9785 29.6969 0.0000 -10513.7802 1404.9650 0.0000 0.0000 1776.4499 -7287.1712 306.4097 -9063.6210 -7310.6640 307.3730 -190.3845 -198.5464 30152.5743 -66.4841 -23.0547
ENERGY: 600000 3.9254 15.8447 28.7907 0.0000 -10491.8925 1368.7648 0.0000 0.0000 1665.3467 -7409.2201 287.2461 -9074.5669 -7322.0789 301.3077 -947.6450 -793.5738 29948.7900 -70.2359 -12.3328
ENERGY: 900000 2.9627 10.8649 30.1785 0.0000 -10574.2474 1428.1289 0.0000 0.0000 1707.6194 -7394.4929 294.5375 -9102.1123 -7337.8077 299.0901 -100.1827 -68.2175 30122.8721 -151.2784 -96.1263
ENERGY: 1200000 4.1724 11.9094 27.7149 0.0000 -10645.3239 1524.8218 0.0000 0.0000 1727.7879 -7348.9175 298.0162 -9076.7054 -7331.9113 299.2035 810.9025 872.4673 29546.6791 20.9321 72.7614
ENERGY: 1500000 3.5384 14.9523 27.6649 0.0000 -10440.8836 1449.7113 0.0000 0.0000 1726.9600 -7218.0566 297.8734 -8945.0166 -7325.0800 298.8846 508.5630 573.5464 29583.3524 3.0551 57.5060
TCL: Running FEP window  20: Lambda1 0.049999999999999684 Lambda2 0.0    [dLambda -0.049999999999999684]
TCL: Setting parameter firsttimestep to 0
TCL: Setting parameter alchLambda to 0.049999999999999684
Info: NONBONDED TABLE R-SQUARED SPACING: 0.0625
Info: NONBONDED TABLE SIZE: 705 POINTS
TCL: Setting parameter alchLambda2 to 0.0
Info: NONBONDED TABLE R-SQUARED SPACING: 0.0625
Info: NONBONDED TABLE SIZE: 705 POINTS
TCL: Running for 1500000 steps
ETITLE: TS BOND ANGLE DIHED IMPRP ELECT VDW BOUNDARY MISC KINETIC TOTAL TEMP POTENTIAL TOTALAVG TEMPAVG PRESSURE GPRESSURE VOLUME PRESSAVG GPRESSAVG
ENERGY: 0 3.5384 14.9523 27.6649 0.0000 -10440.8842 1448.1508 0.0000 0.0000 1726.1002 -7220.4776 297.7251 -8946.5777 -7220.4776 297.7251 491.8359 567.1799 29583.3524 491.8359 567.1799
ENERGY: 300000 5.7270 9.7578 28.5514 0.0000 -10444.5131 1368.7560 0.0000 0.0000 1763.8158 -7267.9051 304.2305 -9031.7209 -7299.3607 300.7589 -314.6642 -333.4777 29913.2112 -31.2718 25.2353
ENERGY: 600000 1.6335 13.7721 28.3691 0.0000 -10562.0422 1456.7054 0.0000 0.0000 1762.2603 -7299.3018 303.9622 -9061.5621 -7289.5565 300.6323 403.1543 470.0837 29333.6415 -131.9935 -63.9451
ENERGY: 900000 6.1575 13.8558 30.1782 0.0000 -10751.7590 1566.2784 0.0000 0.0000 1749.3500 -7385.9391 301.7354 -9135.2891 -7297.5519 301.1241 1004.8442 1101.0474 29188.5777 -113.8478 -43.5756
ENERGY: 1200000 1.9727 12.9927 26.6217 0.0000 -10522.7997 1404.7647 0.0000 0.0000 1773.2353 -7303.2125 305.8552 -9076.4478 -7295.2879 301.2922 -277.8901 -203.1570 29710.4885 -204.8750 -139.5127
ENERGY: 1500000 3.1846 15.9075 28.0882 0.0000 -10510.3893 1453.3089 0.0000 0.0000 1715.8397 -7294.0604 295.9554 -9009.9000 -7295.1759 301.1523 140.4715 217.0604 29996.4294 -191.5622 -134.8321
TCL: Exiting due to exit command.
