Info: SIMULATION PARAMETERS:
Info: TIMESTEP               2
Info: NUMBER OF STEPS        0
Info: STEPS PER CYCLE        10
Info: PERIODIC CELL BASIS 1  30.8687 0 0
Info: PERIODIC CELL BASIS 2  0 30.0869 0
Info: PERIODIC CELL BASIS 3  0 0 32.2777
Info: PERIODIC CELL CENTER   0 0 0
Info: WRAPPING WATERS AROUND PERIODIC BOUNDARIES ON OUTPUT.
Info: WRAPPING ALL CLUSTERS AROUND PERIODIC BOUNDARIES ON OUTPUT.
Info: FIRST LDB TIMESTEP     50
Info: LAST LDB TIMESTEP     -1
Info: HOM BACKGROUND SCALING 1
Info: PME BACKGROUND SCALING 1
Info: MIN ATOMS PER PATCH    40
Info: EMPTY PATCH LOAD       40 ATOMS
Info: VELOCITY FILE          mobley_1849020_equil.vel
Info: CENTER OF MASS MOVING INITIALLY? NO
Info: DIELECTRIC             1
Info: EXCLUDE                SCALED ONE-FOUR
Info: 1-4 ELECTROSTATICS SCALED BY 0.833333
Info: MODIFIED 1-4 VDW PARAMETERS WILL BE USED
Info: DCD FILENAME           mobley_1849020_prod.dcd
Info: DCD FREQUENCY          100000
Info: DCD FIRST STEP         100000
Info: DCD FILE WILL CONTAIN UNIT CELL DATA
Info: XST FILENAME           mobley_1849020_prod.xst
Info: XST FREQUENCY          100000
Info: NO VELOCITY DCD OUTPUT
Info: NO FORCE DCD OUTPUT
Info: OUTPUT FILENAME        mobley_1849020_prod
Info: BINARY OUTPUT FILES WILL BE USED
Info: RESTART FILENAME       mobley_1849020_prod.restart
Info: RESTART FREQUENCY      100000
Info: BINARY RESTART FILES WILL BE USED
Info: CUTOFF                 9
Info: PAIRLIST DISTANCE      11
Info: PAIRLIST SHRINK RATE   0.01
Info: PAIRLIST GROW RATE     0.01
Info: PAIRLIST TRIGGER       0.3
Info: PAIRLISTS PER CYCLE    2
Info: PAIRLISTS ENABLED
Info: MARGIN                 2
Info: HYDROGEN GROUP CUTOFF  2.5
Info: PATCH DIMENSION        15.5
Info: ENERGY OUTPUT STEPS    100000
Info: ENERGY EVALUATION STEPS    100000
Info: OUTPUT ENERGY PRECISION 4
Info: CROSSTERM ENERGY INCLUDED IN DIHEDRAL
Info: TIMING OUTPUT STEPS    1000000
Info: PRESSURE OUTPUT STEPS  100000
Info: ALCHEMICAL FEP ON
Info: FEP CURRENT LAMBDA VALUE     1
Info: FEP COMPARISON LAMBDA VALUE  0.95
Info: FEP INTRA-ALCHEMICAL NON-BONDED INTERACTIONS WILL BE RETAINED
Info: FEP INTRA-ALCHEMICAL BONDED INTERACTIONS WILL BE RETAINED
Info: FEP VDW SHIFTING COEFFICIENT 5
Info: FEP ELEC. ACTIVE FOR ANNIHILATED PARTICLES BETWEEN LAMBDA = 0 AND LAMBDA = 0.5
Info: FEP ELEC. ACTIVE FOR EXNIHILATED PARTICLES BETWEEN LAMBDA = 0.5 AND LAMBDA = 1
Info: FEP VDW ACTIVE FOR ANNIHILATED PARTICLES BETWEEN LAMBDA = 0 AND LAMBDA = 1
Info: FEP VDW ACTIVE FOR EXNIHILATED PARTICLES BETWEEN LAMBDA = 0 AND LAMBDA = 1
Info: FEP BOND ACTIVE FOR ANNIHILATED PARTICLES BETWEEN LAMBDA = 1 AND LAMBDA = 1
Info: FEP BOND ACTIVE FOR EXNIHILATED PARTICLES BETWEEN LAMBDA = 0 AND LAMBDA = 0
Info: LANGEVIN DYNAMICS ACTIVE
Info: LANGEVIN TEMPERATURE   300
Info: LANGEVIN USING BBK INTEGRATOR
Info: LANGEVIN DAMPING COEFFICIENT IS 1 INVERSE PS
Info: LANGEVIN DYNAMICS APPLIED TO HYDROGENS
Info: LANGEVIN PISTON PRESSURE CONTROL ACTIVE
Info:        TARGET PRESSURE IS 1.01325 BAR
Info:     OSCILLATION PERIOD IS 50 FS
Info:             DECAY TIME IS 25 FS
Info:     PISTON TEMPERATURE IS 300 K
Info:       PRESSURE CONTROL IS GROUP-BASED
Info:    INITIAL STRAIN RATE IS 0.000256957 0.000256957 0.000256957
Info:       CELL FLUCTUATION IS ISOTROPIC
Info: PARTICLE MESH EWALD (PME) ACTIVE
Info: PME TOLERANCE               1e-06
Info: PME EWALD COEFFICIENT       0.348832
Info: PME INTERPOLATION ORDER     4
Info: PME GRID DIMENSIONS         32 32 36
Info: PME MAXIMUM GRID SPACING    1
Info: PME CALCULATION WILL BE PERFORMED ON GPU
Info: FULL ELECTROSTATIC EVALUATION FREQUENCY      2
Info: USING VERLET I (r-RESPA) MTS SCHEME.
Info: C1 SPLITTING OF LONG RANGE ELECTROSTATICS
Info: PLACING ATOMS IN PATCHES BY HYDROGEN GROUPS
Info: RIGID BONDS TO HYDROGEN : ALL
Info:         ERROR TOLERANCE : 1e-08
Info:          MAX ITERATIONS : 100
Info: RIGID WATER USING SETTLE ALGORITHM
Info: RANDOM NUMBER SEED     1744096651
Info: USE HYDROGEN BONDS?    NO
Info: Using AMBER format force field!
Info: AMBER PARM FILE        mobley_1849020.prmtop
Info: COORDINATE PDB         mobley_1849020.pdb
Info: Exclusions will be read from PARM file!
Info: SCNB (VDW SCALING)     2
Info: USING ARITHMETIC MEAN TO COMBINE L-J SIGMA PARAMETERS
Info: BINARY COORDINATES     mobley_1849020_equil.coor
Info: SUMMARY OF PARAMETERS:
Info: 15 BONDS
Info: 20 ANGLES
Info:   20 HARMONIC
Info:   0 COSINE-BASED
Info: 13 DIHEDRAL
Info: 0 IMPROPER
Info: 0 CROSSTERM
Info: 0 VDW
Info: 78 VDW_PAIRS
Info: 0 NBTHOLE_PAIRS
Info: To read alchdata from file: mobley_1849020.pdb
Info: To read alchflag data from column: 5
Info: STRUCTURE SUMMARY:
Info: 2902 ATOMS
Info: 2902 BONDS
Info: 58 ANGLES
Info: 81 DIHEDRALS
Info: 0 IMPROPERS
Info: 0 CROSSTERMS
Info: 3022 EXCLUSIONS
Info: 2884 RIGID BONDS
Info: ALCH: 0 ATOMS TO DISAPPEAR IN FINAL STATE
Info: ALCH: 34 ATOMS TO APPEAR IN FINAL STATE
Info: 5822 DEGREES OF FREEDOM
Info: 974 HYDROGEN GROUPS
Info: 4 ATOMS IN LARGEST HYDROGEN GROUP
Info: 974 MIGRATION GROUPS
Info: 4 ATOMS IN LARGEST MIGRATION GROUP
Info: TOTAL MASS = 17566.1 amu
Info: TOTAL CHARGE = -5.96046e-08 e
Info: MASS DENSITY = 0.973053 g/cm^3
Info: ATOM DENSITY = 0.0968052 atoms/A^3
Info: ADDED 0 IMPLICIT EXCLUSIONS
Info: NONBONDED TABLE R-SQUARED SPACING: 0.0625
Info: NONBONDED TABLE SIZE: 705 POINTS
Info: REMOVING COM VELOCITY 0.245933 -0.0596539 0.0915431
Info: Use 3D box decompostion in PME FFT.
Info: Updated CUDA force table with 4096 elements.
Info: Updated CUDA LJ table with 12 x 12 elements.
Info: Found 36 unique exclusion lists needing 160 bytes
TCL: Running for 1500000 steps
ETITLE: TS BOND ANGLE DIHED IMPRP ELECT VDW BOUNDARY MISC KINETIC TOTAL TEMP POTENTIAL TOTALAVG TEMPAVG PRESSURE GPRESSURE VOLUME PRESSAVG GPRESSAVG
ENERGY: 0 9.8549 13.6598 29.5551 0.0000 -10471.8386 1400.8176 0.0000 0.0000 1755.9874 -7261.9639 303.5565 -9017.9512 -7261.9639 303.5565 81.2356 175.6143 29977.7389 81.2356 175.6143
ENERGY: 300000 3.9255 12.9127 27.2999 0.0000 -10477.7211 1395.9312 0.0000 0.0000 1719.1044 -7318.5474 297.1806 -9037.6518 -7289.7214 301.6668 141.4025 160.1852 30068.6510 44.2694 108.6916
ENERGY: 600000 3.3730 17.3233 28.7326 0.0000 -10504.8855 1424.6942 0.0000 0.0000 1733.0108 -7297.7518 299.5846 -9030.7625 -7321.8854 299.3925 440.8556 428.6959 30167.5985 103.9457 161.0967
ENERGY: 900000 5.0949 10.6143 24.6577 0.0000 -10523.6877 1419.6565 0.0000 0.0000 1765.2403 -7298.4239 305.1561 -9063.6642 -7328.9051 298.4890 385.0278 440.4648 29702.1903 -64.8965 -6.2022
ENERGY: 1200000 8.7895 19.4841 26.1269 0.0000 -10558.7306 1399.1268 0.0000 0.0000 1716.8473 -7388.3560 296.7904 -9105.2034 -7330.1788 299.7905 -363.1294 -338.0761 29809.6884 -12.5795 37.3698
ENERGY: 1500000 4.5851 20.6222 28.9882 0.0000 -10466.2991 1372.0397 0.0000 0.0000 1817.3986 -7222.6653 314.1726 -9040.0639 -7322.3848 300.8965 97.8687 229.2255 29675.9214 2.2565 59.5977
TCL: Running FEP window   2: Lambda1 0.95   Lambda2 0.8999999999999999 [dLambda -0.050000000000000044]
TCL: Setting parameter firsttimestep to 0
TCL: Setting parameter alchLambda to 0.95
Info: NONBONDED TABLE R-SQUARED SPACING: 0.0625
Info: NONBONDED TABLE SIZE: 705 POINTS
TCL: Setting parameter alchLambda2 to 0.8999999999999999
Info: NONBONDED TABLE R-SQUARED SPACING: 0.0625
Info: NONBONDED TABLE SIZE: 705 POINTS
TCL: Running for 1500000 steps
ETITLE: TS BOND ANGLE DIHED IMPRP ELECT VDW BOUNDARY MISC KINETIC TOTAL TEMP POTENTIAL TOTALAVG TEMPAVG PRESSURE GPRESSURE VOLUME PRESSAVG GPRESSAVG
ENERGY: 0 4.5851 20.6222 28.9882 0.0000 -10463.8174 1372.0044 0.0000 0.0000 1816.5499 -7221.0676 314.0259 -9037.6176 -7221.0676 314.0259 106.5334 203.8627 29675.9214 106.5334 203.8627
ENERGY: 300000 5.0739 9.2128 28.2719 0.0000 -10691.6483 1510.2874 0.0000 0.0000 1732.2730 -7406.5293 299.4570 -9138.8023 -7288.3729 307.6838 782.1338 863.1793 29668.6142 34.8615 116.7362
ENERGY: 600000 6.0405 17.0977 24.6720 0.0000 -10598.6698 1397.1281 0.0000 0.0000 1761.4524 -7392.2791 304.5013 -9153.7315 -7322.0263 305.1032 -229.4752 -116.5359 29864.8496 -51.1511 45.2730
ENERGY: 900000 7.5270 13.6104 29.0205 0.0000 -10530.1395 1449.1430 0.0000 0.0000 1713.0988 -7317.7398 296.1424 -9030.8386 -7321.0240 303.7908 689.6362 782.9163 29856.1017 -103.9131 -21.2348
ENERGY: 1200000 4.5833 11.8975 24.8519 0.0000 -10385.4805 1263.4391 0.0000 0.0000 1755.0210 -7325.6877 303.3895 -9080.7087 -7331.8394 302.6264 -1070.2380 -988.0938 30148.0905 -127.5485 -48.6066
ENERGY: 1500000 4.6303 14.8494 27.4807 0.0000 -10424.4756 1398.3920 0.0000 0.0000 1717.4125 -7261.7107 296.8881 -8979.1232 -7330.9096 301.0976 204.3734 225.2075 30297.4309 -160.6871 -85.8540
TCL: Running FEP window   3: Lambda1 0.8999999999999999 Lambda2 0.8499999999999999 [dLambda -0.050000000000000044]
TCL: Setting parameter firsttimestep to 0
TCL: Setting parameter alchLambda to 0.8999999999999999
Info: NONBONDED TABLE R-SQUARED SPACING: 0.0625
Info: NONBONDED TABLE SIZE: 705 POINTS
TCL: Setting parameter alchLambda2 to 0.8499999999999999
Info: NONBONDED TABLE R-SQUARED SPACING: 0.0625
Info: NONBONDED TABLE SIZE: 705 POINTS
TCL: Running for 1500000 steps
ETITLE: TS BOND ANGLE DIHED IMPRP ELECT VDW BOUNDARY MISC KINETIC TOTAL TEMP POTENTIAL TOTALAVG TEMPAVG PRESSURE GPRESSURE VOLUME PRESSAVG GPRESSAVG
ENERGY: 0 4.6303 14.8494 27.4807 0.0000 -10422.5241 1398.4271 0.0000 0.0000 1716.5763 -7260.5603 296.7436 -8977.1366 -7260.5603 296.7436 136.2066 205.6009 30297.4309 136.2066 205.6009
ENERGY: 300000 4.1409 7.4734 25.7688 0.0000 -10588.3668 1501.5693 0.0000 0.0000 1801.9568 -7247.4575 311.5032 -9049.4143 -7302.3929 301.1600 1138.9629 1173.3160 29866.9331 431.9108 503.1634
ENERGY: 600000 4.6823 16.0212 29.3446 0.0000 -10593.1261 1454.3058 0.0000 0.0000 1809.5940 -7279.1782 312.8235 -9088.7722 -7326.0179 303.0720 482.0812 517.7318 29923.4768 180.1823 255.6621
ENERGY: 900000 4.0606 13.3316 29.1002 0.0000 -10500.3414 1418.3004 0.0000 0.0000 1721.1401 -7314.4086 297.5325 -9035.5487 -7335.7391 301.4693 161.2456 247.2746 30200.5316 34.3498 113.7795
ENERGY: 1200000 5.7681 15.0847 26.2211 0.0000 -10536.6690 1437.2036 0.0000 0.0000 1798.8098 -7253.5817 310.9592 -9052.3915 -7321.0568 302.1712 759.7043 795.0606 29496.8254 101.0571 175.9577
ENERGY: 1500000 4.9407 16.6182 28.1691 0.0000 -10297.4809 1287.9613 0.0000 0.0000 1781.5301 -7178.2614 307.9721 -8959.7916 -7318.7744 302.4685 -374.4249 -379.0032 30008.5700 -26.6081 42.1030
TCL: Running FEP window   4: Lambda1 0.8499999999999999 Lambda2 0.7999999999999998 [dLambda -0.050000000000000044]
TCL: Setting parameter firsttimestep to 0
TCL: Setting parameter alchLambda to 0.8499999999999999
Info: NONBONDED TABLE R-SQUARED SPACING: 0.0625
Info: NONBONDED TABLE SIZE: 705 POINTS
TCL: Setting parameter alchLambda2 to 0.7999999999999998
Info: NONBONDED TABLE R-SQUARED SPACING: 0.0625
Info: NONBONDED TABLE SIZE: 705 POINTS
TCL: Running for 1500000 steps
ETITLE: TS BOND ANGLE DIHED IMPRP ELECT VDW BOUNDARY MISC KINETIC TOTAL TEMP POTENTIAL TOTALAVG TEMPAVG PRESSURE GPRESSURE VOLUME PRESSAVG GPRESSAVG
ENERGY: 0 4.9407 16.6182 28.1691 0.0000 -10295.0096 1287.3517 0.0000 0.0000 1780.6977 -7177.2321 307.8282 -8957.9299 -7177.2321 307.8282 -473.3880 -404.4587 30008.5700 -473.3880 -404.4587
ENERGY: 300000 3.9726 23.3053 24.3304 0.0000 -10588.1816 1430.1206 0.0000 0.0000 1718.0807 -7388.3720 297.0036 -9106.4527 -7256.4468 301.0910 161.9734 199.8214 29627.0579 -83.0054 -34.2966
ENERGY: 600000 6.0323 13.1523 27.3896 0.0000 -10445.1416 1335.5607 0.0000 0.0000 1690.5595 -7372.4473 292.2460 -9063.0067 -7270.0877 300.1497 -273.0177 -207.0486 29506.2891 -227.6888 -168.6591
ENERGY: 900000 4.2278 16.7597 25.4065 0.0000 -10482.0988 1372.5667 0.0000 0.0000 1744.4424 -7318.6956 301.5608 -9063.1381 -7280.7943 300.4744 -335.3034 -230.3009 29941.4322 -83.6528 -23.3949
ENERGY: 1200000 6.1244 13.5676 24.1141 0.0000 -10523.6274 1397.5275 0.0000 0.0000 1686.4738 -7395.8200 291.5397 -9082.2938 -7296.0562 299.0920 7.6876 30.8530 29899.1525 -96.0254 -34.7690
ENERGY: 1500000 7.1162 15.6981 28.2226 0.0000 -10416.4790 1352.0727 0.0000 0.0000 1692.0510 -7321.3185 292.5039 -9013.3695 -7296.1919 298.8702 -159.3754 -164.3508 29721.8021 -183.6327 -126.2321
TCL: Running FEP window   5: Lambda1 0.7999999999999998 Lambda2 0.7499999999999998 [dLambda -0.050000000000000044]
TCL: Setting parameter firsttimestep to 0
TCL: Setting parameter alchLambda to 0.7999999999999998
Info: NONBONDED TABLE R-SQUARED SPACING: 0.0625
Info: NONBONDED TABLE SIZE: 705 POINTS
TCL: Setting parameter alchLambda2 to 0.7499999999999998
Info: NONBONDED TABLE R-SQUARED SPACING: 0.0625
Info: NONBONDED TABLE SIZE: 705 POINTS
TCL: Running for 1500000 steps
ETITLE: TS BOND ANGLE DIHED IMPRP ELECT VDW BOUNDARY MISC KINETIC TOTAL TEMP POTENTIAL TOTALAVG TEMPAVG PRESSURE GPRESSURE VOLUME PRESSAVG GPRESSAVG
ENERGY: 0 7.1162 15.6981 28.2226 0.0000 -10415.1047 1352.7343 0.0000 0.0000 1691.1931 -7320.1405 292.3556 -9011.3336 -7320.1405 292.3556 -255.6548 -182.9927 29721.8021 -255.6548 -182.9927
ENERGY: 300000 9.2848 9.2632 25.7384 0.0000 -10431.4879 1319.2629 0.0000 0.0000 1787.0124 -7280.9263 308.9198 -9067.9387 -7326.7966 298.7239 -384.2688 -318.2905 29779.5272 -627.5350 -576.0151
ENERGY: 600000 7.0638 16.2428 26.4075 0.0000 -10558.1257 1431.7461 0.0000 0.0000 1782.0466 -7294.6188 308.0614 -9076.6654 -7338.0158 298.6953 308.5265 347.9183 29771.1759 -238.8559 -187.3302
ENERGY: 900000 9.2050 17.4770 23.0456 0.0000 -10480.5430 1359.5582 0.0000 0.0000 1692.3661 -7378.8911 292.5584 -9071.2572 -7345.8452 297.6913 -530.6221 -467.8734 29965.1679 -356.7528 -301.3006
ENERGY: 1200000 3.6012 21.6192 24.3005 0.0000 -10472.5920 1334.5575 0.0000 0.0000 1749.8000 -7338.7136 302.4869 -9088.5136 -7337.2436 298.9139 -510.7718 -436.6578 29876.6709 -355.7063 -300.1359
ENERGY: 1500000 7.5034 12.5082 24.6826 0.0000 -10531.4003 1447.0295 0.0000 0.0000 1702.2274 -7337.4493 294.2631 -9039.6767 -7335.4537 299.4030 761.3798 767.8869 29961.3248 -200.7895 -145.8328
TCL: Running FEP window   6: Lambda1 0.7499999999999998 Lambda2 0.6999999999999997 [dLambda -0.050000000000000044]
TCL: Setting parameter firsttimestep to 0
TCL: Setting parameter alchLambda to 0.7499999999999998
Info: NONBONDED TABLE R-SQUARED SPACING: 0.0625
Info: NONBONDED TABLE SIZE: 705 POINTS
TCL: Setting parameter alchLambda2 to 0.6999999999999997
Info: NONBONDED TABLE R-SQUARED SPACING: 0.0625
Info: NONBONDED TABLE SIZE: 705 POINTS
TCL: Running for 1500000 steps
ETITLE: TS BOND ANGLE DIHED IMPRP ELECT VDW BOUNDARY MISC KINETIC TOTAL TEMP POTENTIAL TOTALAVG TEMPAVG PRESSURE GPRESSURE VOLUME PRESSAVG GPRESSAVG
ENERGY: 0 7.5034 12.5082 24.6826 0.0000 -10529.8035 1448.2539 0.0000 0.0000 1701.3663 -7335.4891 294.1142 -9036.8554 -7335.4891 294.1142 687.7039 763.3412 29961.3248 687.7039 763.3412
ENERGY: 300000 5.9574 14.7144 26.0285 0.0000 -10553.0920 1418.5211 0.0000 0.0000 1756.8004 -7331.0701 303.6971 -9087.8705 -7306.6882 297.8577 -6.5228 47.6881 29943.7405 20.4503 86.3234
ENERGY: 600000 4.6780 19.2070 26.3880 0.0000 -10445.2847 1323.3002 0.0000 0.0000 1724.6706 -7347.0410 298.1428 -9071.7116 -7306.1978 300.6131 -453.0156 -436.8279 29816.4827 -167.7531 -102.1940
ENERGY: 900000 6.1565 16.0989 25.8641 0.0000 -10527.2109 1399.5990 0.0000 0.0000 1727.9829 -7351.5094 298.7154 -9079.4924 -7331.1238 299.2928 -92.3658 56.7310 29684.3863 -53.4565 25.5977
ENERGY: 1200000 5.6033 14.6260 27.7068 0.0000 -10598.5652 1444.5071 0.0000 0.0000 1751.0405 -7355.0815 302.7014 -9106.1220 -7328.8992 299.6894 616.5138 663.1642 29545.5492 -1.3528 71.7499
ENERGY: 1500000 3.5292 11.9014 24.8770 0.0000 -10523.9458 1385.7232 0.0000 0.0000 1688.7723 -7409.1427 291.9371 -9097.9150 -7328.7457 299.5188 -227.0796 -213.6690 30119.0238 -4.6490 62.2079
TCL: Running FEP window   7: Lambda1 0.6999999999999997 Lambda2 0.6499999999999997 [dLambda -0.050000000000000044]
TCL: Setting parameter firsttimestep to 0
TCL: Setting parameter alchLambda to 0.6999999999999997
Info: NONBONDED TABLE R-SQUARED SPACING: 0.0625
Info: NONBONDED TABLE SIZE: 705 POINTS
TCL: Setting parameter alchLambda2 to 0.6499999999999997
Info: NONBONDED TABLE R-SQUARED SPACING: 0.0625
Info: NONBONDED TABLE SIZE: 705 POINTS
TCL: Running for 1500000 steps
ETITLE: TS BOND ANGLE DIHED IMPRP ELECT VDW BOUNDARY MISC KINETIC TOTAL TEMP POTENTIAL TOTALAVG TEMPAVG PRESSURE GPRESSURE VOLUME PRESSAVG GPRESSAVG
ENERGY: 0 3.5292 11.9014 24.8770 0.0000 -10522.3602 1386.4689 0.0000 0.0000 1687.9296 -7407.6541 291.7914 -9095.5837 -7407.6541 291.7914 -299.0036 -216.1629 30119.0238 -299.0036 -216.1629
ENERGY: 300000 5.2853 16.2094 27.1577 0.0000 -10591.1801 1402.9967 0.0000 0.0000 1728.1792 -7411.3519 298.7493 -9139.5311 -7376.2755 295.7742 -119.4552 -86.9149 29549.5160 -53.5132 -0.7845
ENERGY: 600000 5.4686 13.1455 27.4987 0.0000 -10374.3011 1375.7302 0.0000 0.0000 1771.2054 -7181.2528 306.1873 -8952.4582 -7322.5635 298.0985 -152.8164 -63.6683 30029.6959 -178.0591 -111.3407
ENERGY: 900000 4.5660 13.2108 25.7239 0.0000 -10522.8904 1430.0800 0.0000 0.0000 1790.0514 -7259.2583 309.4452 -9049.3097 -7319.6120 299.1633 496.5298 513.6554 29774.5663 -203.7192 -148.3804
ENERGY: 1200000 4.9997 14.7505 31.2046 0.0000 -10387.8114 1378.8450 0.0000 0.0000 1709.7242 -7248.2875 295.5590 -8958.0117 -7323.8863 299.0290 -79.5574 -120.6234 30422.9016 -192.1270 -149.7844
ENERGY: 1500000 4.1131 15.1678 27.6631 0.0000 -10405.7069 1306.6191 0.0000 0.0000 1767.3812 -7284.7626 305.5262 -9052.1438 -7322.7343 299.3401 -534.4838 -483.2919 29661.5378 -174.3189 -124.6407
TCL: Running FEP window   8: Lambda1 0.6499999999999997 Lambda2 0.5999999999999996 [dLambda -0.050000000000000044]
TCL: Setting parameter firsttimestep to 0
TCL: Setting parameter alchLambda to 0.6499999999999997
Info: NONBONDED TABLE R-SQUARED SPACING: 0.0625
Info: NONBONDED TABLE SIZE: 705 POINTS
TCL: Setting parameter alchLambda2 to 0.5999999999999996
Info: NONBONDED TABLE R-SQUARED SPACING: 0.0625
Info: NONBONDED TABLE SIZE: 705 POINTS
TCL: Running for 1500000 steps
ETITLE: TS BOND ANGLE DIHED IMPRP ELECT VDW BOUNDARY MISC KINETIC TOTAL TEMP POTENTIAL TOTALAVG TEMPAVG PRESSURE GPRESSURE VOLUME PRESSAVG GPRESSAVG
ENERGY: 0 4.1131 15.1678 27.6631 0.0000 -10404.5743 1306.0855 0.0000 0.0000 1766.4913 -7285.0535 305.3723 -9051.5448 -7285.0535 305.3723 -572.9299 -508.3757 29661.5378 -572.9299 -508.3757
ENERGY: 300000 3.4991 10.9760 27.2138 0.0000 -10454.5618 1369.5426 0.0000 0.0000 1751.2647 -7292.0657 302.7401 -9043.3304 -7269.2391 304.9150 -168.9529 -137.4838 30047.2492 -204.5290 -167.2416
ENERGY: 600000 12.3451 18.0356 24.8836 0.0000 -10505.2153 1414.0999 0.0000 0.0000 1761.0075 -7274.8436 304.4244 -9035.8511 -7285.4335 302.8623 347.7305 403.7517 29896.2205 -100.5362 -66.4259
ENERGY: 900000 4.1167 15.2856 27.2964 0.0000 -10336.0052 1360.8300 0.0000 0.0000 1705.7713 -7222.7051 294.8757 -8928.4765 -7283.5427 301.2203 -216.3955 -144.9452 30489.6351 -82.6574 -32.2744
ENERGY: 1200000 3.2558 15.9718 28.2636 0.0000 -10449.4510 1366.1496 0.0000 0.0000 1800.7725 -7235.0377 311.2985 -9035.8101 -7297.4065 300.9920 -535.6651 -539.6074 30832.1482 -142.8416 -98.9808
ENERGY: 1500000 7.8792 14.3725 25.1505 0.0000 -10561.5788 1419.8232 0.0000 0.0000 1764.4496 -7329.9039 305.0194 -9094.3534 -7302.2432 300.5469 -157.0968 -21.6650 29727.4081 -156.9970 -104.5257
TCL: Running FEP window   9: Lambda1 0.5999999999999996 Lambda2 0.5499999999999996 [dLambda -0.050000000000000044]
TCL: Setting parameter firsttimestep to 0
TCL: Setting parameter alchLambda to 0.5999999999999996
Info: NONBONDED TABLE R-SQUARED SPACING: 0.0625
Info: NONBONDED TABLE SIZE: 705 POINTS
TCL: Setting parameter alchLambda2 to 0.5499999999999996
Info: NONBONDED TABLE R-SQUARED SPACING: 0.0625
Info: NONBONDED TABLE SIZE: 705 POINTS
TCL: Running for 1500000 steps
ETITLE: TS BOND ANGLE DIHED IMPRP ELECT VDW BOUNDARY MISC KINETIC TOTAL TEMP POTENTIAL TOTALAVG TEMPAVG PRESSURE GPRESSURE VOLUME PRESSAVG GPRESSAVG
ENERGY: 0 7.8792 14.3725 25.1505 0.0000 -10560.6694 1419.8208 0.0000 0.0000 1763.6111 -7329.8353 304.8744 -9093.4465 -7329.8353 304.8744 -129.2222 -37.5495 29727.4081 -129.2222 -37.5495
ENERGY: 300000 4.7428 15.2038 29.0117 0.0000 -10428.9287 1322.3031 0.0000 0.0000 1687.7811 -7369.8863 291.7657 -9057.6674 -7326.8603 297.6600 -670.3710 -661.0998 30043.1568 -150.6672 -105.8887
ENERGY: 600000 6.5711 15.0161 25.7988 0.0000 -10357.8471 1281.0009 0.0000 0.0000 1705.5525 -7323.9077 294.8379 -9029.4602 -7317.6506 296.0932 -1165.3096 -1059.1729 30226.0201 -77.1077 -37.1100
ENERGY: 900000 6.1669 11.5160 27.0062 0.0000 -10438.8491 1381.4230 0.0000 0.0000 1773.9271 -7238.8099 306.6577 -9012.7369 -7303.4011 299.4019 -180.6299 -115.5188 30678.9821 -107.9185 -57.5177
ENERGY: 1200000 3.7869 14.3466 23.4642 0.0000 -10533.0008 1414.6441 0.0000 0.0000 1765.5982 -7311.1607 305.2179 -9076.7589 -7310.9234 299.2330 -54.8152 58.6148 30120.2411 -187.5877 -123.2109
ENERGY: 1500000 10.5380 12.9425 23.7541 0.0000 -10629.3210 1437.6225 0.0000 0.0000 1707.8255 -7436.6384 295.2308 -9144.4639 -7314.9853 299.3253 0.2908 46.2094 29545.0755 -165.0749 -97.1871
TCL: Running FEP window  10: Lambda1 0.5499999999999996 Lambda2 0.4999999999999996 [dLambda -0.04999999999999999]
TCL: Setting parameter firsttimestep to 0
TCL: Setting parameter alchLambda to 0.5499999999999996
Info: NONBONDED TABLE R-SQUARED SPACING: 0.0625
Info: NONBONDED TABLE SIZE: 705 POINTS
TCL: Setting parameter alchLambda2 to 0.4999999999999996
Info: NONBONDED TABLE R-SQUARED SPACING: 0.0625
Info: NONBONDED TABLE SIZE: 705 POINTS
TCL: Running for 1500000 steps
ETITLE: TS BOND ANGLE DIHED IMPRP ELECT VDW BOUNDARY MISC KINETIC TOTAL TEMP POTENTIAL TOTALAVG TEMPAVG PRESSURE GPRESSURE VOLUME PRESSAVG GPRESSAVG
ENERGY: 0 10.5380 12.9425 23.7541 0.0000 -10628.9874 1437.6259 0.0000 0.0000 1706.9787 -7437.1482 295.0844 -9144.1269 -7437.1482 295.0844 -73.4942 30.3348 29545.0755 -73.4942 30.3348
ENERGY: 300000 5.3887 16.1026 24.8808 0.0000 -10578.2563 1444.6868 0.0000 0.0000 1699.6790 -7387.5184 293.8225 -9087.1974 -7384.2160 295.5636 -104.6968 -30.2232 30048.6378 -198.7160 -119.2691
ENERGY: 600000 10.7178 16.5575 30.0636 0.0000 -10503.8784 1351.4467 0.0000 0.0000 1809.8489 -7285.2439 312.8675 -9095.0928 -7343.7213 298.7512 -576.5768 -510.7756 29708.4685 24.8280 104.3699
ENERGY: 900000 8.1569 10.4173 27.7457 0.0000 -10520.4356 1427.9317 0.0000 0.0000 1706.9187 -7339.2653 295.0740 -9046.1839 -7321.2108 298.9601 94.4766 148.7040 30017.4177 -221.5869 -141.0060
ENERGY: 1200000 4.9184 11.1080 26.9390 0.0000 -10481.3826 1382.2115 0.0000 0.0000 1753.3375 -7302.8683 303.0984 -9056.2058 -7314.9739 299.8369 -223.9567 -189.8318 30131.0187 -282.4148 -208.4148
ENERGY: 1500000 6.2177 12.4144 29.2092 0.0000 -10523.4611 1443.6938 0.0000 0.0000 1704.7654 -7327.1606 294.7018 -9031.9260 -7311.2610 300.7109 598.1382 685.9489 29481.6877 -197.2020 -122.5212
TCL: Running FEP window  11: Lambda1 0.4999999999999996 Lambda2 0.4499999999999996 [dLambda -0.04999999999999999]
TCL: Setting parameter firsttimestep to 0
TCL: Setting parameter alchLambda to 0.4999999999999996
Info: NONBONDED TABLE R-SQUARED SPACING: 0.0625
Info: NONBONDED TABLE SIZE: 705 POINTS
TCL: Setting parameter alchLambda2 to 0.4499999999999996
Info: NONBONDED TABLE R-SQUARED SPACING: 0.0625
Info: NONBONDED TABLE SIZE: 705 POINTS
TCL: Running for 1500000 steps
ETITLE: TS BOND ANGLE DIHED IMPRP ELECT VDW BOUNDARY MISC KINETIC TOTAL TEMP POTENTIAL TOTALAVG TEMPAVG PRESSURE GPRESSURE VOLUME PRESSAVG GPRESSAVG
ENERGY: 0 6.2177 12.4144 29.2092 0.0000 -10521.9406 1443.2548 0.0000 0.0000 1703.9184 -7326.9262 294.5554 -9030.8445 -7326.9262 294.5554 581.2948 669.4594 29481.6877 581.2948 669.4594
ENERGY: 300000 4.4297 12.3241 24.0850 0.0000 -10434.9083 1363.3438 0.0000 0.0000 1720.2897 -7310.4360 297.3855 -9030.7256 -7330.5007 297.5870 -233.3167 -135.6449 29749.1806 87.6153 147.3215
ENERGY: 600000 5.9885 22.4170 26.3123 0.0000 -10440.6147 1381.7787 0.0000 0.0000 1733.1335 -7270.9847 299.6058 -9004.1182 -7315.4306 298.2006 20.1271 92.7106 30077.4273 12.9262 78.5007
ENERGY: 900000 7.9843 10.6357 29.4998 0.0000 -10457.9026 1397.0711 0.0000 0.0000 1720.8377 -7291.8740 297.4802 -9012.7117 -7307.4185 298.1000 -184.3836 -182.4005 30032.8994 -82.8713 -23.7053
ENERGY: 1200000 2.8787 16.1663 26.9594 0.0000 -10469.2844 1424.8002 0.0000 0.0000 1727.8207 -7270.6591 298.6874 -8998.4798 -7309.7229 298.8825 582.5788 595.3257 29399.8002 -70.4552 -16.1091
ENERGY: 1500000 3.9939 15.5888 31.5139 0.0000 -10411.9733 1369.5238 0.0000 0.0000 1768.4009 -7222.9521 305.7024 -8991.3529 -7298.8484 299.1815 -91.2079 -0.4587 30090.2064 -32.0317 24.6823
TCL: Running FEP window  12: Lambda1 0.4499999999999996 Lambda2 0.39999999999999963 [dLambda -0.04999999999999999]
TCL: Setting parameter firsttimestep to 0
TCL: Setting parameter alchLambda to 0.4499999999999996
Info: NONBONDED TABLE R-SQUARED SPACING: 0.0625
Info: NONBONDED TABLE SIZE: 705 POINTS
TCL: Setting parameter alchLambda2 to 0.39999999999999963
Info: NONBONDED TABLE R-SQUARED SPACING: 0.0625
Info: NONBONDED TABLE SIZE: 705 POINTS
TCL: Running for 1500000 steps
ETITLE: TS BOND ANGLE DIHED IMPRP ELECT VDW BOUNDARY MISC KINETIC TOTAL TEMP POTENTIAL TOTALAVG TEMPAVG PRESSURE GPRESSURE VOLUME PRESSAVG GPRESSAVG
ENERGY: 0 3.9939 15.5888 31.5139 0.0000 -10411.9751 1370.0569 0.0000 0.0000 1767.5631 -7223.2585 305.5576 -8990.8216 -7223.2585 305.5576 -96.7238 -12.4862 30090.2064 -96.7238 -12.4862
ENERGY: 300000 5.4164 13.7512 26.5981 0.0000 -10551.9808 1445.1884 0.0000 0.0000 1741.5507 -7319.4759 301.0609 -9061.0266 -7296.8414 301.7207 637.1973 665.9366 29587.0284 274.7857 349.0452
ENERGY: 600000 3.5221 20.7829 25.3892 0.0000 -10507.3894 1475.8512 0.0000 0.0000 1748.3367 -7233.5073 302.2340 -8981.8440 -7287.9249 300.8052 404.7375 475.7722 30363.8801 97.6756 167.0270
ENERGY: 900000 4.3199 15.5716 29.1750 0.0000 -10394.2181 1379.5592 0.0000 0.0000 1758.2206 -7207.3717 303.9426 -8965.5923 -7279.3632 301.5874 -277.6904 -247.0496 30473.4609 6.7929 76.3897
ENERGY: 1200000 7.9058 12.0381 30.9597 0.0000 -10543.9299 1449.8387 0.0000 0.0000 1734.3795 -7308.8081 299.8212 -9043.1876 -7290.0716 299.9125 767.1351 873.6300 29403.8962 11.6365 77.7004
ENERGY: 1500000 4.0093 15.7436 24.6379 0.0000 -10567.9011 1432.0345 0.0000 0.0000 1721.6314 -7369.8445 297.6174 -9091.4759 -7298.3256 299.6114 294.3418 330.9176 29456.2201 34.8371 94.7383
TCL: Running FEP window  13: Lambda1 0.39999999999999963 Lambda2 0.34999999999999964 [dLambda -0.04999999999999999]
TCL: Setting parameter firsttimestep to 0
TCL: Setting parameter alchLambda to 0.39999999999999963
Info: NONBONDED TABLE R-SQUARED SPACING: 0.0625
Info: NONBONDED TABLE SIZE: 705 POINTS
TCL: Setting parameter alchLambda2 to 0.34999999999999964
Info: NONBONDED TABLE R-SQUARED SPACING: 0.0625
Info: NONBONDED TABLE SIZE: 705 POINTS
TCL: Running for 1500000 steps
ETITLE: TS BOND ANGLE DIHED IMPRP ELECT VDW BOUNDARY MISC KINETIC TOTAL TEMP POTENTIAL TOTALAVG TEMPAVG PRESSURE GPRESSURE VOLUME PRESSAVG GPRESSAVG
ENERGY: 0 4.0093 15.7436 24.6379 0.0000 -10567.9004 1432.8024 0.0000 0.0000 1720.7625 -7369.9448 297.4672 -9090.7073 -7369.9448 297.4672 240.7262 325.7425 29456.2201 240.7262 325.7425
ENERGY: 300000 8.0461 12.9775 27.4873 0.0000 -10411.8279 1351.2061 0.0000 0.0000 1728.9995 -7283.1113 298.8912 -9012.1108 -7318.2150 299.8243 -246.1847 -190.4281 29676.0592 109.2957 192.7653
ENERGY: 600000 4.8526 17.6132 27.1639 0.0000 -10651.0064 1488.8734 0.0000 0.0000 1737.6598 -7374.8434 300.3882 -9112.5032 -7332.8142 299.1066 807.8960 882.5591 29702.4308 185.2963 261.0887
ENERGY: 900000 5.3802 13.5450 28.3832 0.0000 -10464.2288 1435.1210 0.0000 0.0000 1776.9301 -7204.8694 307.1769 -8981.7995 -7301.8676 300.8224 400.0044 490.0039 30200.1037 287.7479 364.2161
ENERGY: 1200000 8.4290 19.4042 27.0988 0.0000 -10411.8585 1360.4677 0.0000 0.0000 1747.6909 -7248.7678 302.1223 -8996.4587 -7319.7684 299.3222 91.8813 76.3412 29868.0004 268.6245 334.2317
ENERGY: 1500000 4.1206 17.3440 27.2299 0.0000 -10714.4159 1497.9037 0.0000 0.0000 1732.0493 -7435.7684 299.4184 -9167.8177 -7332.0363 299.0118 549.1340 595.2997 29221.7876 222.7627 285.6338
TCL: Running FEP window  14: Lambda1 0.34999999999999964 Lambda2 0.29999999999999966 [dLambda -0.04999999999999999]
TCL: Setting parameter firsttimestep to 0
TCL: Setting parameter alchLambda to 0.34999999999999964
Info: NONBONDED TABLE R-SQUARED SPACING: 0.0625
Info: NONBONDED TABLE SIZE: 705 POINTS
TCL: Setting parameter alchLambda2 to 0.29999999999999966
Info: NONBONDED TABLE R-SQUARED SPACING: 0.0625
Info: NONBONDED TABLE SIZE: 705 POINTS
TCL: Running for 1500000 steps
ETITLE: TS BOND ANGLE DIHED IMPRP ELECT VDW BOUNDARY MISC KINETIC TOTAL TEMP POTENTIAL TOTALAVG TEMPAVG PRESSURE GPRESSURE VOLUME PRESSAVG GPRESSAVG
ENERGY: 0 4.1206 17.3440 27.2299 0.0000 -10714.4148 1497.9051 0.0000 0.0000 1731.1714 -7436.6438 299.2666 -9167.8152 -7436.6438 299.2666 509.0988 583.1124 29221.7876 509.0988 583.1124
ENERGY: 300000 8.8056 17.7914 28.8323 0.0000 -10519.7432 1395.1726 0.0000 0.0000 1680.9962 -7388.1451 290.5928 -9069.1413 -7325.7233 297.1962 -180.3075 -122.1686 30189.8402 248.6284 328.1527
ENERGY: 600000 4.5585 15.0483 26.7471 0.0000 -10476.6107 1383.2797 0.0000 0.0000 1778.0561 -7268.9210 307.3715 -9046.9771 -7318.9357 299.2556 -189.3389 -138.7454 29680.2761 172.1442 236.0618
ENERGY: 900000 4.8495 11.4735 25.9427 0.0000 -10604.0541 1491.1837 0.0000 0.0000 1733.6159 -7336.9887 299.6892 -9070.6046 -7314.6423 300.6961 464.9510 518.6659 29982.4767 239.7132 304.0216
ENERGY: 1200000 3.2805 15.7674 24.9098 0.0000 -10574.6794 1441.6009 0.0000 0.0000 1701.0491 -7388.0718 294.0594 -9089.1209 -7310.6995 301.2762 391.2629 441.4538 29607.1670 176.5987 243.5462
ENERGY: 1500000 7.8554 12.7064 26.1526 0.0000 -10434.1055 1300.3803 0.0000 0.0000 1801.7007 -7285.3100 311.4590 -9087.0107 -7312.6047 301.1947 -1054.3742 -1011.0478 30129.2474 60.8465 124.4049
TCL: Running FEP window  15: Lambda1 0.29999999999999966 Lambda2 0.24999999999999967 [dLambda -0.04999999999999999]
TCL: Setting parameter firsttimestep to 0
TCL: Setting parameter alchLambda to 0.29999999999999966
Info: NONBONDED TABLE R-SQUARED SPACING: 0.0625
Info: NONBONDED TABLE SIZE: 705 POINTS
TCL: Setting parameter alchLambda2 to 0.24999999999999967
Info: NONBONDED TABLE R-SQUARED SPACING: 0.0625
Info: NONBONDED TABLE SIZE: 705 POINTS
TCL: Running for 1500000 steps
ETITLE: TS BOND ANGLE DIHED IMPRP ELECT VDW BOUNDARY MISC KINETIC TOTAL TEMP POTENTIAL TOTALAVG TEMPAVG PRESSURE GPRESSURE VOLUME PRESSAVG GPRESSAVG
ENERGY: 0 7.8555 12.7064 26.1526 0.0000 -10434.1031 1300.6848 0.0000 0.0000 1800.8982 -7285.8056 311.3202 -9086.7038 -7285.8056 311.3202 -1092.8578 -1016.9113 30129.2474 -1092.8578 -1016.9113
ENERGY: 300000 6.0876 13.9970 30.9334 0.0000 -10429.1862 1384.3682 0.0000 0.0000 1780.6021 -7213.1979 307.8117 -8993.8000 -7277.4559 303.8314 -174.7357 -138.8891 29976.5782 -264.8417 -189.4568
ENERGY: 600000 8.4637 16.2158 24.9188 0.0000 -10482.5998 1395.7811 0.0000 0.0000 1722.8098 -7314.4105 297.8211 -9037.2203 -7287.5068 301.8479 -93.8828 9.5740 29648.1727 39.8870 125.2213
ENERGY: 900000 5.8863 15.0378 28.3704 0.0000 -10362.0375 1315.2853 0.0000 0.0000 1707.8725 -7289.5851 295.2389 -8997.4576 -7293.8105 300.6224 -941.5675 -804.1004 29844.2924 13.3385 85.7999
ENERGY: 1200000 10.4052 10.8073 27.9435 0.0000 -10430.2144 1418.6251 0.0000 0.0000 1772.1629 -7190.2704 306.3528 -8962.4333 -7289.0222 301.7635 141.0193 193.2139 29751.6055 -34.3168 26.3500
ENERGY: 1500000 4.3329 13.3023 31.7108 0.0000 -10463.2885 1381.1054 0.0000 0.0000 1689.2352 -7343.6018 292.0171 -9032.8370 -7290.2566 301.1018 -289.6193 -208.2641 29771.7724 -105.7721 -38.9731
TCL: Running FEP window  16: Lambda1 0.24999999999999967 Lambda2 0.19999999999999968 [dLambda -0.04999999999999999]
TCL: Setting parameter firsttimestep to 0
TCL: Setting parameter alchLambda to 0.24999999999999967
Info: NONBONDED TABLE R-SQUARED SPACING: 0.0625
Info: NONBONDED TABLE SIZE: 705 POINTS
TCL: Setting parameter alchLambda2 to 0.19999999999999968
Info: NONBONDED TABLE R-SQUARED SPACING: 0.0625
Info: NONBONDED TABLE SIZE: 705 POINTS
TCL: Running for 1500000 steps
ETITLE: TS BOND ANGLE DIHED IMPRP ELECT VDW BOUNDARY MISC KINETIC TOTAL TEMP POTENTIAL TOTALAVG TEMPAVG PRESSURE GPRESSURE VOLUME PRESSAVG GPRESSAVG
ENERGY: 0 4.3330 13.3023 31.7108 0.0000 -10463.2901 1381.5924 0.0000 0.0000 1688.4210 -7343.9306 291.8764 -9032.3516 -7343.9306 291.8764 -305.9781 -216.5612 29771.7724 -305.9781 -216.5612
ENERGY: 300000 5.1898 23.1875 28.6036 0.0000 -10497.7633 1461.6102 0.0000 0.0000 1750.6497 -7228.5225 302.6338 -8979.1722 -7351.7615 296.2858 734.5625 803.3600 29836.4473 163.0163 254.7832
ENERGY: 600000 6.9301 12.7348 28.9626 0.0000 -10455.3267 1378.6427 0.0000 0.0000 1775.1439 -7252.9126 306.8681 -9028.0565 -7325.4132 300.1490 -246.8173 -240.8023 29669.6327 -24.6577 45.0380
ENERGY: 900000 6.4143 13.2243 27.5899 0.0000 -10541.3475 1412.8562 0.0000 0.0000 1712.4300 -7368.8328 296.0268 -9081.2628 -7320.7338 299.7632 -252.7373 -228.1513 30007.9777 -118.4062 -62.8963
ENERGY: 1200000 11.2885 11.2695 25.1235 0.0000 -10564.1000 1470.3235 0.0000 0.0000 1714.4826 -7331.6124 296.3816 -9046.0950 -7318.1386 298.9672 592.6718 587.9957 29905.3682 -60.1569 -11.3735
ENERGY: 1500000 4.1726 12.9124 31.0075 0.0000 -10474.3570 1390.5000 0.0000 0.0000 1752.4670 -7283.2975 302.9480 -9035.7645 -7316.5143 299.4536 -318.4837 -293.4040 30020.2407 -103.0368 -59.3172
TCL: Running FEP window  17: Lambda1 0.19999999999999968 Lambda2 0.1499999999999997 [dLambda -0.04999999999999999]
TCL: Setting parameter firsttimestep to 0
TCL: Setting parameter alchLambda to 0.19999999999999968
Info: NONBONDED TABLE R-SQUARED SPACING: 0.0625
Info: NONBONDED TABLE SIZE: 705 POINTS
TCL: Setting parameter alchLambda2 to 0.1499999999999997
Info: NONBONDED TABLE R-SQUARED SPACING: 0.0625
Info: NONBONDED TABLE SIZE: 705 POINTS
TCL: Running for 1500000 steps
ETITLE: TS BOND ANGLE DIHED IMPRP ELECT VDW BOUNDARY MISC KINETIC TOTAL TEMP POTENTIAL TOTALAVG TEMPAVG PRESSURE GPRESSURE VOLUME PRESSAVG GPRESSAVG
ENERGY: 0 4.1726 12.9124 31.0075 0.0000 -10474.3582 1391.6544 0.0000 0.0000 1751.6041 -7283.0071 302.7988 -9034.6112 -7283.0071 302.7988 -384.0634 -296.4353 30020.2407 -384.0634 -296.4353
ENERGY: 300000 7.5034 11.2765 27.2282 0.0000 -10400.9015 1314.2347 0.0000 0.0000 1699.7038 -7340.9548 293.8268 -9040.6586 -7306.6686 301.0729 -1049.0654 -998.3879 30236.1235 -214.4549 -157.3952
ENERGY: 600000 5.0129 21.2211 27.6877 0.0000 -10512.9904 1393.2104 0.0000 0.0000 1773.3258 -7292.5325 306.5538 -9065.8583 -7300.7561 300.3934 -191.6310 -161.8248 29757.8629 -152.1187 -106.5228
ENERGY: 900000 8.6891 18.1204 23.5769 0.0000 -10465.2485 1423.9380 0.0000 0.0000 1792.1770 -7198.7471 309.8126 -8990.9241 -7301.3054 300.5691 56.0672 53.4561 30107.2450 -57.6220 -24.0947
ENERGY: 1200000 5.3063 17.0375 26.6611 0.0000 -10435.9043 1349.4673 0.0000 0.0000 1728.1649 -7309.2673 298.7469 -9037.4321 -7309.9602 300.9239 -523.1095 -436.3494 29725.2918 -198.2319 -153.1747
ENERGY: 1500000 9.1329 16.1138 26.3819 0.0000 -10610.8855 1408.3743 0.0000 0.0000 1724.3986 -7426.4840 298.0958 -9150.8826 -7318.0328 300.4595 -197.8019 -106.0682 29452.0083 -219.6450 -168.2918
TCL: Running FEP window  18: Lambda1 0.1499999999999997 Lambda2 0.09999999999999969 [dLambda -0.05 ]
TCL: Setting parameter firsttimestep to 0
TCL: Setting parameter alchLambda to 0.1499999999999997
Info: NONBONDED TABLE R-SQUARED SPACING: 0.0625
Info: NONBONDED TABLE SIZE: 705 POINTS
TCL: Setting parameter alchLambda2 to 0.09999999999999969
Info: NONBONDED TABLE R-SQUARED SPACING: 0.0625
Info: NONBONDED TABLE SIZE: 705 POINTS
TCL: Running for 1500000 steps
ETITLE: TS BOND ANGLE DIHED IMPRP ELECT VDW BOUNDARY MISC KINETIC TOTAL TEMP POTENTIAL TOTALAVG TEMPAVG PRESSURE GPRESSURE VOLUME PRESSAVG GPRESSAVG
ENERGY: 0 9.1329 16.1138 26.3819 0.0000 -10610.8849 1408.6514 0.0000 0.0000 1723.5078 -7427.0971 297.9418 -9150.6050 -7427.0971 297.9418 -188.3394 -113.8086 29452.0083 -188.3394 -113.8086
ENERGY: 300000 3.8821 22.2490 23.1128 0.0000 -10325.0727 1298.4043 0.0000 0.0000 1728.4168 -7249.0077 298.7904 -8977.4245 -7308.5579 301.6424 -785.8785 -690.9799 29670.9817 -300.1041 -237.2481
ENERGY: 600000 3.7626 10.6988 30.6822 0.0000 -10503.4183 1441.5634 0.0000 0.0000 1685.0346 -7331.6766 291.2910 -9016.7113 -7305.9737 300.3320 504.5073 570.8031 29338.4728 -160.6361 -106.3389
ENERGY: 900000 3.6607 17.0706 24.1343 0.0000 -10473.1104 1352.1248 0.0000 0.0000 1712.2800 -7363.8400 296.0009 -9076.1200 -7320.6527 298.4108 -218.9437 -176.9692 29253.8700 -246.4829 -191.9572
ENERGY: 1200000 6.1842 12.4621 28.7492 0.0000 -10287.3668 1218.8125 0.0000 0.0000 1760.8852 -7260.2735 304.4032 -9021.1587 -7312.8733 299.9416 -1672.8604 -1676.0925 30051.4246 -236.9327 -187.8224
ENERGY: 1500000 4.8319 11.2554 27.2024 0.0000 -10605.5304 1482.4322 0.0000 0.0000 1717.2371 -7362.5714 296.8578 -9079.8085 -7320.3251 299.3919 399.3072 494.2818 29339.8940 -143.6795 -96.9736
TCL: Running FEP window  19: Lambda1 0.09999999999999969 Lambda2 0.049999999999999684 [dLambda -0.05 ]
TCL: Setting parameter firsttimestep to 0
TCL: Setting parameter alchLambda to 0.09999999999999969
Info: NONBONDED TABLE R-SQUARED SPACING: 0.0625
Info: NONBONDED TABLE SIZE: 705 POINTS
TCL: Setting parameter alchLambda2 to 0.049999999999999684
Info: NONBONDED TABLE R-SQUARED SPACING: 0.0625
Info: NONBONDED TABLE SIZE: 705 POINTS
TCL: Running for 1500000 steps
ETITLE: TS BOND ANGLE DIHED IMPRP ELECT VDW BOUNDARY MISC KINETIC TOTAL TEMP POTENTIAL TOTALAVG TEMPAVG PRESSURE GPRESSURE VOLUME PRESSAVG GPRESSAVG
ENERGY: 0 4.8319 11.2554 27.2024 0.0000 -10605.5289 1481.5099 0.0000 0.0000 1716.3755 -7364.3538 296.7088 -9080.7293 -7364.3538 296.7088 388.6023 481.0223 29339.8940 388.6023 481.0223
ENERGY: 300000 4.6660 17.1296 25.6303 0.0000 -10440.5798 1375.7823 0.0000 0.0000 1712.6402 -7304.7314 296.0631 -9017.3716 -7338.8683 296.5579 -424.9369 -297.2425 29698.0085 164.5012 257.3970
ENERGY: 600000 6.1685 12.4418 29.4766 0.0000 -10383.8681 1349.4314 0.0000 0.0000 1749.7191 -7236.6307 302.4729 -8986.3498 -7319.9052 298.3451 -537.4521 -442.5082 30300.5685 -5.1282 75.2086
ENERGY: 900000 4.2662 15.8057 23.6144 0.0000 -10540.6503 1420.1195 0.0000 0.0000 1692.6432 -7384.2014 292.6062 -9076.8446 -7328.8999 297.8103 243.8574 334.6999 29206.8981 -48.4075 39.5407
ENERGY: 1200000 7.3365 16.4343 26.4206 0.0000 -10507.6104 1433.8399 0.0000 0.0000 1784.0786 -7239.5006 308.4126 -9023.5791 -7326.7852 298.5238 -56.2367 68.2494 29764.9130 -45.9029 39.4805
ENERGY: 1500000 10.0237 11.9775 24.5879 0.0000 -10400.6928 1364.7489 0.0000 0.0000 1734.8833 -7254.4715 299.9083 -8989.3548 -7324.8567 297.9333 -252.3905 -176.2968 29668.7789 -88.0613 -0.9877
TCL: Running FEP window  20: Lambda1 0.049999999999999684 Lambda2 0.0    [dLambda -0.049999999999999684]
TCL: Setting parameter firsttimestep to 0
TCL: Setting parameter alchLambda to 0.049999999999999684
Info: NONBONDED TABLE R-SQUARED SPACING: 0.0625
Info: NONBONDED TABLE SIZE: 705 POINTS
TCL: Setting parameter alchLambda2 to 0.0
Info: NONBONDED TABLE R-SQUARED SPACING: 0.0625
Info: NONBONDED TABLE SIZE: 705 POINTS
TCL: Running for 1500000 steps
ETITLE: TS BOND ANGLE DIHED IMPRP ELECT VDW BOUNDARY MISC KINETIC TOTAL TEMP POTENTIAL TOTALAVG TEMPAVG PRESSURE GPRESSURE VOLUME PRESSAVG GPRESSAVG
ENERGY: 0 10.0237 11.9775 24.5879 0.0000 -10400.6915 1363.2752 0.0000 0.0000 1734.0390 -7256.7882 299.7623 -8990.8272 -7256.7882 299.7623 -272.8209 -186.5076 29668.7789 -272.8209 -186.5076
ENERGY: 300000 4.8609 16.8901 24.3735 0.0000 -10560.9650 1399.0396 0.0000 0.0000 1768.3746 -7347.4264 305.6979 -9115.8009 -7309.4556 303.3899 -454.0386 -396.5512 29359.0730 -201.2045 -138.8240
ENERGY: 600000 2.2880 13.7484 24.6783 0.0000 -10566.8270 1447.8019 0.0000 0.0000 1752.6153 -7325.6952 302.9736 -9078.3105 -7302.5351 303.8948 117.8848 227.6354 29435.0433 -111.0752 -42.1983
ENERGY: 900000 4.7259 16.6560 23.6089 0.0000 -10540.3125 1411.0978 0.0000 0.0000 1727.4366 -7356.7872 298.6210 -9084.2238 -7314.7946 301.7859 123.8901 197.8360 29546.8834 -68.4097 -2.5077
ENERGY: 1200000 9.9225 12.5524 29.0248 0.0000 -10466.2497 1387.9095 0.0000 0.0000 1754.1825 -7272.6579 303.2445 -9026.8405 -7313.8281 301.2202 -294.5284 -284.1004 29386.6623 -144.2471 -73.8952
ENERGY: 1500000 5.5391 13.7027 23.8284 0.0000 -10529.6804 1414.5179 0.0000 0.0000 1673.5125 -7398.5797 289.2991 -9072.0923 -7315.5219 300.8924 -630.0076 -537.9931 30026.5031 -217.8366 -150.8113
TCL: Exiting due to exit command.
