Info: SIMULATION PARAMETERS:
Info: TIMESTEP               2
Info: NUMBER OF STEPS        0
Info: STEPS PER CYCLE        10
Info: PERIODIC CELL BASIS 1  36.3774 0 0
Info: PERIODIC CELL BASIS 2  0 29.4695 0
Info: PERIODIC CELL BASIS 3  0 0 28.7424
Info: PERIODIC CELL CENTER   0 0 0
Info: WRAPPING WATERS AROUND PERIODIC BOUNDARIES ON OUTPUT.
Info: WRAPPING ALL CLUSTERS AROUND PERIODIC BOUNDARIES ON OUTPUT.
Info: FIRST LDB TIMESTEP     50
Info: LAST LDB TIMESTEP     -1
Info: HOM BACKGROUND SCALING 1
Info: PME BACKGROUND SCALING 1
Info: MIN ATOMS PER PATCH    40
Info: EMPTY PATCH LOAD       40 ATOMS
Info: VELOCITY FILE          mobley_129464_equil.vel
Info: CENTER OF MASS MOVING INITIALLY? NO
Info: DIELECTRIC             1
Info: EXCLUDE                SCALED ONE-FOUR
Info: 1-4 ELECTROSTATICS SCALED BY 0.833333
Info: MODIFIED 1-4 VDW PARAMETERS WILL BE USED
Info: DCD FILENAME           mobley_129464_prod.dcd
Info: DCD FREQUENCY          100000
Info: DCD FIRST STEP         100000
Info: DCD FILE WILL CONTAIN UNIT CELL DATA
Info: XST FILENAME           mobley_129464_prod.xst
Info: XST FREQUENCY          100000
Info: NO VELOCITY DCD OUTPUT
Info: NO FORCE DCD OUTPUT
Info: OUTPUT FILENAME        mobley_129464_prod
Info: BINARY OUTPUT FILES WILL BE USED
Info: RESTART FILENAME       mobley_129464_prod.restart
Info: RESTART FREQUENCY      100000
Info: BINARY RESTART FILES WILL BE USED
Info: CUTOFF                 9
Info: PAIRLIST DISTANCE      11
Info: PAIRLIST SHRINK RATE   0.01
Info: PAIRLIST GROW RATE     0.01
Info: PAIRLIST TRIGGER       0.3
Info: PAIRLISTS PER CYCLE    2
Info: PAIRLISTS ENABLED
Info: MARGIN                 2
Info: HYDROGEN GROUP CUTOFF  2.5
Info: PATCH DIMENSION        15.5
Info: ENERGY OUTPUT STEPS    100000
Info: ENERGY EVALUATION STEPS    100000
Info: OUTPUT ENERGY PRECISION 4
Info: CROSSTERM ENERGY INCLUDED IN DIHEDRAL
Info: TIMING OUTPUT STEPS    1000000
Info: PRESSURE OUTPUT STEPS  100000
Info: ALCHEMICAL FEP ON
Info: FEP CURRENT LAMBDA VALUE     1
Info: FEP COMPARISON LAMBDA VALUE  0.95
Info: FEP INTRA-ALCHEMICAL NON-BONDED INTERACTIONS WILL BE RETAINED
Info: FEP INTRA-ALCHEMICAL BONDED INTERACTIONS WILL BE RETAINED
Info: FEP VDW SHIFTING COEFFICIENT 5
Info: FEP ELEC. ACTIVE FOR ANNIHILATED PARTICLES BETWEEN LAMBDA = 0 AND LAMBDA = 0.5
Info: FEP ELEC. ACTIVE FOR EXNIHILATED PARTICLES BETWEEN LAMBDA = 0.5 AND LAMBDA = 1
Info: FEP VDW ACTIVE FOR ANNIHILATED PARTICLES BETWEEN LAMBDA = 0 AND LAMBDA = 1
Info: FEP VDW ACTIVE FOR EXNIHILATED PARTICLES BETWEEN LAMBDA = 0 AND LAMBDA = 1
Info: FEP BOND ACTIVE FOR ANNIHILATED PARTICLES BETWEEN LAMBDA = 1 AND LAMBDA = 1
Info: FEP BOND ACTIVE FOR EXNIHILATED PARTICLES BETWEEN LAMBDA = 0 AND LAMBDA = 0
Info: LANGEVIN DYNAMICS ACTIVE
Info: LANGEVIN TEMPERATURE   300
Info: LANGEVIN USING BBK INTEGRATOR
Info: LANGEVIN DAMPING COEFFICIENT IS 1 INVERSE PS
Info: LANGEVIN DYNAMICS APPLIED TO HYDROGENS
Info: LANGEVIN PISTON PRESSURE CONTROL ACTIVE
Info:        TARGET PRESSURE IS 1.01325 BAR
Info:     OSCILLATION PERIOD IS 50 FS
Info:             DECAY TIME IS 25 FS
Info:     PISTON TEMPERATURE IS 300 K
Info:       PRESSURE CONTROL IS GROUP-BASED
Info:    INITIAL STRAIN RATE IS -0.00030409 -0.00030409 -0.00030409
Info:       CELL FLUCTUATION IS ISOTROPIC
Info: PARTICLE MESH EWALD (PME) ACTIVE
Info: PME TOLERANCE               1e-06
Info: PME EWALD COEFFICIENT       0.348832
Info: PME INTERPOLATION ORDER     4
Info: PME GRID DIMENSIONS         40 32 32
Info: PME MAXIMUM GRID SPACING    1
Info: PME CALCULATION WILL BE PERFORMED ON GPU
Info: FULL ELECTROSTATIC EVALUATION FREQUENCY      2
Info: USING VERLET I (r-RESPA) MTS SCHEME.
Info: C1 SPLITTING OF LONG RANGE ELECTROSTATICS
Info: PLACING ATOMS IN PATCHES BY HYDROGEN GROUPS
Info: RIGID BONDS TO HYDROGEN : ALL
Info:         ERROR TOLERANCE : 1e-08
Info:          MAX ITERATIONS : 100
Info: RIGID WATER USING SETTLE ALGORITHM
Info: RANDOM NUMBER SEED     1744067179
Info: USE HYDROGEN BONDS?    NO
Info: Using AMBER format force field!
Info: AMBER PARM FILE        mobley_129464.prmtop
Info: COORDINATE PDB         mobley_129464.pdb
Info: Exclusions will be read from PARM file!
Info: SCNB (VDW SCALING)     2
Info: USING ARITHMETIC MEAN TO COMBINE L-J SIGMA PARAMETERS
Info: BINARY COORDINATES     mobley_129464_equil.coor
Info: SUMMARY OF PARAMETERS:
Info: 6 BONDS
Info: 8 ANGLES
Info:   8 HARMONIC
Info:   0 COSINE-BASED
Info: 11 DIHEDRAL
Info: 0 IMPROPER
Info: 0 CROSSTERM
Info: 0 VDW
Info: 21 VDW_PAIRS
Info: 0 NBTHOLE_PAIRS
Info: To read alchdata from file: mobley_129464.pdb
Info: To read alchflag data from column: 5
Info: STRUCTURE SUMMARY:
Info: 2958 ATOMS
Info: 2957 BONDS
Info: 49 ANGLES
Info: 70 DIHEDRALS
Info: 0 IMPROPERS
Info: 0 CROSSTERMS
Info: 3066 EXCLUSIONS
Info: 2949 RIGID BONDS
Info: ALCH: 0 ATOMS TO DISAPPEAR IN FINAL STATE
Info: ALCH: 27 ATOMS TO APPEAR IN FINAL STATE
Info: 5925 DEGREES OF FREEDOM
Info: 986 HYDROGEN GROUPS
Info: 4 ATOMS IN LARGEST HYDROGEN GROUP
Info: 986 MIGRATION GROUPS
Info: 4 ATOMS IN LARGEST MIGRATION GROUP
Info: TOTAL MASS = 17731.9 amu
Info: TOTAL CHARGE = -0.000399999 e
Info: MASS DENSITY = 0.955621 g/cm^3
Info: ATOM DENSITY = 0.0959999 atoms/A^3
Info: ADDED 0 IMPLICIT EXCLUSIONS
Info: NONBONDED TABLE R-SQUARED SPACING: 0.0625
Info: NONBONDED TABLE SIZE: 705 POINTS
Info: REMOVING COM VELOCITY -0.080594 0.084387 0.0900109
Info: Use 3D box decompostion in PME FFT.
Info: Updated CUDA force table with 4096 elements.
Info: Updated CUDA LJ table with 6 x 6 elements.
Info: Found 28 unique exclusion lists needing 100 bytes
TCL: Running for 1500000 steps
ETITLE: TS BOND ANGLE DIHED IMPRP ELECT VDW BOUNDARY MISC KINETIC TOTAL TEMP POTENTIAL TOTALAVG TEMPAVG PRESSURE GPRESSURE VOLUME PRESSAVG GPRESSAVG
ENERGY: 0 3.9851 16.0476 4.9281 0.0000 -10633.6502 1374.2873 0.0000 0.0000 1733.3747 -7501.0275 294.4384 -9234.4022 -7501.0275 294.4384 -738.4511 -674.3802 30812.5426 -738.4511 -674.3802
ENERGY: 300000 1.3499 10.6604 3.1741 0.0000 -10611.9838 1421.0145 0.0000 0.0000 1778.6932 -7397.0917 302.1364 -9175.7849 -7403.4677 302.0964 -105.8761 -15.9193 30690.6306 8.5106 74.9527
ENERGY: 600000 2.4927 16.4561 4.1463 0.0000 -10596.7619 1410.0534 0.0000 0.0000 1714.0882 -7449.5251 291.1623 -9163.6133 -7440.8247 299.5934 -325.7720 -298.0421 30902.5292 50.1595 104.1118
ENERGY: 900000 2.2730 11.6467 5.7258 0.0000 -10656.1092 1448.0010 0.0000 0.0000 1727.6124 -7460.8503 293.4596 -9188.4628 -7445.2555 298.6563 231.5376 275.0708 30660.8148 -53.7085 -3.8936
ENERGY: 1200000 1.4438 8.9933 5.5007 0.0000 -10556.7776 1359.3049 0.0000 0.0000 1784.0544 -7397.4805 303.0471 -9181.5349 -7442.2237 299.0909 -502.6934 -457.6183 30555.6302 -63.4490 -16.0912
ENERGY: 1500000 3.9922 9.7359 3.2083 0.0000 -10670.8638 1424.0976 0.0000 0.0000 1761.0206 -7468.8092 299.1345 -9229.8298 -7449.6793 298.6211 328.2562 342.2269 29949.0390 3.8524 43.1367
TCL: Running FEP window   2: Lambda1 0.95   Lambda2 0.8999999999999999 [dLambda -0.050000000000000044]
TCL: Setting parameter firsttimestep to 0
TCL: Setting parameter alchLambda to 0.95
Info: NONBONDED TABLE R-SQUARED SPACING: 0.0625
Info: NONBONDED TABLE SIZE: 705 POINTS
TCL: Setting parameter alchLambda2 to 0.8999999999999999
Info: NONBONDED TABLE R-SQUARED SPACING: 0.0625
Info: NONBONDED TABLE SIZE: 705 POINTS
TCL: Running for 1500000 steps
ETITLE: TS BOND ANGLE DIHED IMPRP ELECT VDW BOUNDARY MISC KINETIC TOTAL TEMP POTENTIAL TOTALAVG TEMPAVG PRESSURE GPRESSURE VOLUME PRESSAVG GPRESSAVG
ENERGY: 0 3.9922 9.7359 3.2083 0.0000 -10670.0902 1423.8201 0.0000 0.0000 1760.0974 -7469.2362 298.9777 -9229.3336 -7469.2362 298.9777 226.9653 322.3354 29949.0390 226.9653 322.3354
ENERGY: 300000 2.6286 7.9056 4.7812 0.0000 -10687.1010 1433.3040 0.0000 0.0000 1765.9052 -7472.5765 299.9642 -9238.4816 -7472.7260 296.7451 -63.0295 26.2701 30548.6218 -37.4048 45.9158
ENERGY: 600000 1.6147 12.8487 7.3352 0.0000 -10727.2048 1496.2782 0.0000 0.0000 1774.9309 -7434.1972 301.4973 -9209.1280 -7464.4422 297.1477 656.9571 711.3014 30062.2465 6.0479 66.3025
ENERGY: 900000 2.6068 15.5051 8.5491 0.0000 -10637.7577 1327.2492 0.0000 0.0000 1821.2915 -7462.5560 309.3724 -9283.8475 -7463.2638 299.3627 -877.8714 -832.3774 30338.4230 -175.1935 -119.2405
ENERGY: 1200000 1.1125 15.8240 7.6129 0.0000 -10591.2263 1419.9181 0.0000 0.0000 1746.7207 -7400.0381 296.7054 -9146.7588 -7450.1908 300.6923 -98.2787 -88.8279 30922.1848 -150.9618 -93.8996
ENERGY: 1500000 3.9231 10.7588 4.3815 0.0000 -10739.1175 1430.8550 0.0000 0.0000 1764.5427 -7524.6565 299.7327 -9289.1992 -7452.3398 300.5694 -128.2214 -56.4219 30145.1321 -130.8033 -67.6186
TCL: Running FEP window   3: Lambda1 0.8999999999999999 Lambda2 0.8499999999999999 [dLambda -0.050000000000000044]
TCL: Setting parameter firsttimestep to 0
TCL: Setting parameter alchLambda to 0.8999999999999999
Info: NONBONDED TABLE R-SQUARED SPACING: 0.0625
Info: NONBONDED TABLE SIZE: 705 POINTS
TCL: Setting parameter alchLambda2 to 0.8499999999999999
Info: NONBONDED TABLE R-SQUARED SPACING: 0.0625
Info: NONBONDED TABLE SIZE: 705 POINTS
TCL: Running for 1500000 steps
ETITLE: TS BOND ANGLE DIHED IMPRP ELECT VDW BOUNDARY MISC KINETIC TOTAL TEMP POTENTIAL TOTALAVG TEMPAVG PRESSURE GPRESSURE VOLUME PRESSAVG GPRESSAVG
ENERGY: 0 3.9231 10.7588 4.3815 0.0000 -10737.9607 1430.9332 0.0000 0.0000 1763.6793 -7524.2850 299.5861 -9287.9642 -7524.2850 299.5861 -165.6106 -69.0558 30145.1321 -165.6106 -69.0558
ENERGY: 300000 4.0670 14.4814 3.2601 0.0000 -10581.9565 1352.6148 0.0000 0.0000 1699.1313 -7508.4020 288.6217 -9207.5333 -7490.4373 295.1789 -711.4995 -650.7753 30453.2148 -396.0960 -305.2797
ENERGY: 600000 5.1563 11.6027 7.6065 0.0000 -10569.0548 1369.3936 0.0000 0.0000 1803.1228 -7372.1729 306.2861 -9175.2957 -7451.6962 298.8314 -158.4761 -42.0186 30008.1762 -178.0864 -88.3204
ENERGY: 900000 3.5137 9.9837 4.6991 0.0000 -10784.7274 1459.1985 0.0000 0.0000 1734.2822 -7573.0503 294.5926 -9307.3324 -7457.2076 298.4721 67.4196 97.3144 30250.1099 -107.8600 -23.9127
ENERGY: 1200000 1.9756 7.0256 6.6820 0.0000 -10713.2173 1470.3436 0.0000 0.0000 1790.6173 -7436.5733 304.1619 -9227.1906 -7453.8665 299.8411 296.3491 426.2744 30242.2428 -91.9420 -13.8145
ENERGY: 1500000 1.4927 16.8115 5.3117 0.0000 -10626.5827 1402.3619 0.0000 0.0000 1777.0184 -7423.5864 301.8519 -9200.6048 -7456.5755 299.2056 -419.2506 -379.5039 30986.3644 -63.7088 10.8831
TCL: Running FEP window   4: Lambda1 0.8499999999999999 Lambda2 0.7999999999999998 [dLambda -0.050000000000000044]
TCL: Setting parameter firsttimestep to 0
TCL: Setting parameter alchLambda to 0.8499999999999999
Info: NONBONDED TABLE R-SQUARED SPACING: 0.0625
Info: NONBONDED TABLE SIZE: 705 POINTS
TCL: Setting parameter alchLambda2 to 0.7999999999999998
Info: NONBONDED TABLE R-SQUARED SPACING: 0.0625
Info: NONBONDED TABLE SIZE: 705 POINTS
TCL: Running for 1500000 steps
ETITLE: TS BOND ANGLE DIHED IMPRP ELECT VDW BOUNDARY MISC KINETIC TOTAL TEMP POTENTIAL TOTALAVG TEMPAVG PRESSURE GPRESSURE VOLUME PRESSAVG GPRESSAVG
ENERGY: 0 1.4927 16.8115 5.3117 0.0000 -10625.6573 1402.8075 0.0000 0.0000 1776.1509 -7423.0830 301.7046 -9199.2339 -7423.0830 301.7046 -481.5518 -386.9734 30986.3644 -481.5518 -386.9734
ENERGY: 300000 0.8360 8.3394 3.7281 0.0000 -10749.7586 1438.6840 0.0000 0.0000 1754.8074 -7543.3637 298.0791 -9298.1711 -7479.0877 296.9668 -216.7464 -162.3192 30625.9120 -296.9681 -239.1857
ENERGY: 600000 4.7123 13.0468 3.5734 0.0000 -10703.1121 1549.2637 0.0000 0.0000 1763.2610 -7369.2550 299.5150 -9132.5160 -7495.5135 298.1618 1203.1805 1352.2670 30211.2706 88.6191 164.2975
ENERGY: 900000 1.7149 11.7722 5.3276 0.0000 -10738.3447 1520.0967 0.0000 0.0000 1727.5145 -7471.9187 293.4430 -9199.4332 -7476.9005 298.6167 619.0948 669.5366 30769.4280 58.2359 132.4380
ENERGY: 1200000 1.8532 13.2508 4.8997 0.0000 -10609.8792 1446.7724 0.0000 0.0000 1772.1368 -7370.9663 301.0227 -9143.1031 -7460.3876 299.2855 271.3789 309.8637 30660.0104 -49.9041 20.4900
ENERGY: 1500000 1.6917 15.7576 3.1509 0.0000 -10762.4023 1446.1098 0.0000 0.0000 1786.4334 -7509.2588 303.4512 -9295.6922 -7461.2965 298.9541 -27.8964 10.6478 30281.3984 -41.7819 23.7877
TCL: Running FEP window   5: Lambda1 0.7999999999999998 Lambda2 0.7499999999999998 [dLambda -0.050000000000000044]
TCL: Setting parameter firsttimestep to 0
TCL: Setting parameter alchLambda to 0.7999999999999998
Info: NONBONDED TABLE R-SQUARED SPACING: 0.0625
Info: NONBONDED TABLE SIZE: 705 POINTS
TCL: Setting parameter alchLambda2 to 0.7499999999999998
Info: NONBONDED TABLE R-SQUARED SPACING: 0.0625
Info: NONBONDED TABLE SIZE: 705 POINTS
TCL: Running for 1500000 steps
ETITLE: TS BOND ANGLE DIHED IMPRP ELECT VDW BOUNDARY MISC KINETIC TOTAL TEMP POTENTIAL TOTALAVG TEMPAVG PRESSURE GPRESSURE VOLUME PRESSAVG GPRESSAVG
ENERGY: 0 1.6917 15.7576 3.1509 0.0000 -10761.6736 1446.7997 0.0000 0.0000 1785.5707 -7508.7030 303.3047 -9294.2737 -7508.7030 303.3047 -73.7902 3.6562 30281.3984 -73.7902 3.6562
ENERGY: 300000 1.2592 15.6164 3.4481 0.0000 -10553.8040 1336.1935 0.0000 0.0000 1761.4258 -7435.8611 299.2033 -9197.2869 -7452.8283 300.7779 -667.1439 -650.2402 30637.5128 -122.7555 -55.3525
ENERGY: 600000 3.7745 15.3770 4.7850 0.0000 -10607.1605 1377.0235 0.0000 0.0000 1807.8773 -7398.3232 307.0938 -9206.2005 -7459.7170 300.9563 -294.2143 -296.3396 30576.9128 85.7142 147.3175
ENERGY: 900000 4.9318 13.0504 3.3205 0.0000 -10734.0822 1489.5692 0.0000 0.0000 1770.1012 -7453.1090 300.6769 -9223.2102 -7455.1077 301.8204 304.6344 417.5228 30436.9423 77.3246 145.0174
ENERGY: 1200000 2.7939 10.1071 3.2287 0.0000 -10674.0542 1422.2258 0.0000 0.0000 1758.0308 -7477.6679 298.6266 -9235.6987 -7454.4920 300.8278 -322.8451 -219.0816 30441.5214 -10.1180 62.5926
ENERGY: 1500000 3.1538 15.2846 4.5805 0.0000 -10631.3081 1393.4955 0.0000 0.0000 1721.9268 -7492.8669 292.4938 -9214.7937 -7457.6316 299.4641 -290.3747 -225.7462 30646.3164 -80.2497 -8.6983
TCL: Running FEP window   6: Lambda1 0.7499999999999998 Lambda2 0.6999999999999997 [dLambda -0.050000000000000044]
TCL: Setting parameter firsttimestep to 0
TCL: Setting parameter alchLambda to 0.7499999999999998
Info: NONBONDED TABLE R-SQUARED SPACING: 0.0625
Info: NONBONDED TABLE SIZE: 705 POINTS
TCL: Setting parameter alchLambda2 to 0.6999999999999997
Info: NONBONDED TABLE R-SQUARED SPACING: 0.0625
Info: NONBONDED TABLE SIZE: 705 POINTS
TCL: Running for 1500000 steps
ETITLE: TS BOND ANGLE DIHED IMPRP ELECT VDW BOUNDARY MISC KINETIC TOTAL TEMP POTENTIAL TOTALAVG TEMPAVG PRESSURE GPRESSURE VOLUME PRESSAVG GPRESSAVG
ENERGY: 0 3.1538 15.2846 4.5805 0.0000 -10630.6811 1393.5680 0.0000 0.0000 1721.0587 -7493.0355 292.3464 -9214.0942 -7493.0355 292.3464 -315.9218 -238.5744 30646.3164 -315.9218 -238.5744
ENERGY: 300000 2.0147 10.5930 6.2505 0.0000 -10676.6906 1434.9254 0.0000 0.0000 1695.8494 -7527.0576 288.0642 -9222.9070 -7504.2711 296.3514 -120.4497 -68.7828 30526.9165 -156.4626 -81.3783
ENERGY: 600000 1.9109 11.6514 2.7771 0.0000 -10679.5828 1451.8754 0.0000 0.0000 1790.6186 -7420.7495 304.1621 -9211.3680 -7482.9779 297.9585 319.3238 349.0960 30393.7602 10.1526 72.3283
ENERGY: 900000 2.4145 16.8314 3.1494 0.0000 -10766.7523 1497.4525 0.0000 0.0000 1768.7994 -7478.1050 300.4558 -9246.9045 -7470.8902 298.8451 527.0507 574.6825 30010.9360 -18.3850 43.2073
ENERGY: 1200000 1.5517 11.6958 4.1965 0.0000 -10732.7653 1476.1917 0.0000 0.0000 1712.1813 -7526.9483 290.8384 -9239.1296 -7478.8003 298.3314 434.4215 501.6574 30423.0713 54.3709 112.8731
ENERGY: 1500000 3.4092 7.1576 3.4948 0.0000 -10570.5342 1383.7581 0.0000 0.0000 1727.4452 -7445.2693 293.4312 -9172.7144 -7465.4195 297.7837 -381.6680 -355.3380 30721.9454 10.1767 66.8360
TCL: Running FEP window   7: Lambda1 0.6999999999999997 Lambda2 0.6499999999999997 [dLambda -0.050000000000000044]
TCL: Setting parameter firsttimestep to 0
TCL: Setting parameter alchLambda to 0.6999999999999997
Info: NONBONDED TABLE R-SQUARED SPACING: 0.0625
Info: NONBONDED TABLE SIZE: 705 POINTS
TCL: Setting parameter alchLambda2 to 0.6499999999999997
Info: NONBONDED TABLE R-SQUARED SPACING: 0.0625
Info: NONBONDED TABLE SIZE: 705 POINTS
TCL: Running for 1500000 steps
ETITLE: TS BOND ANGLE DIHED IMPRP ELECT VDW BOUNDARY MISC KINETIC TOTAL TEMP POTENTIAL TOTALAVG TEMPAVG PRESSURE GPRESSURE VOLUME PRESSAVG GPRESSAVG
ENERGY: 0 3.4092 7.1576 3.4948 0.0000 -10570.0785 1384.3346 0.0000 0.0000 1726.5906 -7445.0917 293.2860 -9171.6822 -7445.0917 293.2860 -437.6047 -360.7008 30721.9454 -437.6047 -360.7008
ENERGY: 300000 1.9583 14.2265 4.8070 0.0000 -10793.4454 1528.5640 0.0000 0.0000 1749.8498 -7494.0398 297.2370 -9243.8896 -7459.4064 296.8773 529.2119 604.4601 30488.1208 -286.7520 -238.4447
ENERGY: 600000 2.7054 18.7456 3.4072 0.0000 -10722.6855 1539.1498 0.0000 0.0000 1712.9013 -7445.7761 290.9607 -9158.6774 -7453.1949 298.2124 815.0826 849.5798 30660.1067 0.7782 35.1416
ENERGY: 900000 1.4963 14.2792 3.0574 0.0000 -10489.4255 1324.2194 0.0000 0.0000 1734.0246 -7412.3485 294.5488 -9146.3732 -7439.6861 297.6819 -706.2477 -606.5561 30627.2905 -183.0427 -133.7665
ENERGY: 1200000 3.4029 8.0829 3.8781 0.0000 -10656.5575 1359.7616 0.0000 0.0000 1736.2154 -7545.2167 294.9210 -9281.4321 -7431.1551 298.8537 -809.0798 -664.3882 30431.9654 -216.5152 -160.3065
ENERGY: 1500000 3.5096 8.8573 2.8884 0.0000 -10668.2304 1407.1336 0.0000 0.0000 1823.7075 -7422.1340 309.7827 -9245.8414 -7434.8326 299.4216 -51.8281 9.6712 30120.6676 -188.3538 -130.0343
TCL: Running FEP window   8: Lambda1 0.6499999999999997 Lambda2 0.5999999999999996 [dLambda -0.050000000000000044]
TCL: Setting parameter firsttimestep to 0
TCL: Setting parameter alchLambda to 0.6499999999999997
Info: NONBONDED TABLE R-SQUARED SPACING: 0.0625
Info: NONBONDED TABLE SIZE: 705 POINTS
TCL: Setting parameter alchLambda2 to 0.5999999999999996
Info: NONBONDED TABLE R-SQUARED SPACING: 0.0625
Info: NONBONDED TABLE SIZE: 705 POINTS
TCL: Running for 1500000 steps
ETITLE: TS BOND ANGLE DIHED IMPRP ELECT VDW BOUNDARY MISC KINETIC TOTAL TEMP POTENTIAL TOTALAVG TEMPAVG PRESSURE GPRESSURE VOLUME PRESSAVG GPRESSAVG
ENERGY: 0 3.5096 8.8573 2.8884 0.0000 -10667.6585 1407.4199 0.0000 0.0000 1822.8526 -7422.1306 309.6375 -9244.9833 -7422.1306 309.6375 -86.5863 -0.0827 30120.6676 -86.5863 -0.0827
ENERGY: 300000 2.7865 16.2568 6.4862 0.0000 -10726.2645 1381.8341 0.0000 0.0000 1812.9441 -7505.9569 307.9544 -9318.9009 -7422.5159 306.9849 -638.2239 -540.1711 30099.2560 -389.6462 -328.5459
ENERGY: 600000 0.8415 13.5005 3.9890 0.0000 -10865.7316 1439.2441 0.0000 0.0000 1785.4373 -7622.7192 303.2820 -9408.1565 -7456.6118 305.0884 -413.8738 -403.2172 30164.4694 -194.4415 -144.0767
ENERGY: 900000 2.5288 10.9034 4.5375 0.0000 -10649.7535 1502.9450 0.0000 0.0000 1821.7469 -7307.0918 309.4497 -9128.8387 -7445.1357 303.4645 579.8487 666.7669 30833.5729 -71.6648 -12.0364
ENERGY: 1200000 4.0271 16.7002 6.1758 0.0000 -10914.3731 1558.6184 0.0000 0.0000 1837.3274 -7491.5242 312.0963 -9328.8517 -7448.6213 303.7227 768.0600 833.3659 30230.7463 0.5404 56.7965
ENERGY: 1500000 2.3701 9.7663 3.4696 0.0000 -10660.1448 1413.9498 0.0000 0.0000 1782.6694 -7447.9196 302.8118 -9230.5891 -7454.2011 302.7347 113.5670 171.6934 29844.9577 45.0389 100.1168
TCL: Running FEP window   9: Lambda1 0.5999999999999996 Lambda2 0.5499999999999996 [dLambda -0.050000000000000044]
TCL: Setting parameter firsttimestep to 0
TCL: Setting parameter alchLambda to 0.5999999999999996
Info: NONBONDED TABLE R-SQUARED SPACING: 0.0625
Info: NONBONDED TABLE SIZE: 705 POINTS
TCL: Setting parameter alchLambda2 to 0.5499999999999996
Info: NONBONDED TABLE R-SQUARED SPACING: 0.0625
Info: NONBONDED TABLE SIZE: 705 POINTS
TCL: Running for 1500000 steps
ETITLE: TS BOND ANGLE DIHED IMPRP ELECT VDW BOUNDARY MISC KINETIC TOTAL TEMP POTENTIAL TOTALAVG TEMPAVG PRESSURE GPRESSURE VOLUME PRESSAVG GPRESSAVG
ENERGY: 0 2.3701 9.7663 3.4696 0.0000 -10659.3609 1414.0629 0.0000 0.0000 1781.7655 -7447.9266 302.6583 -9229.6920 -7447.9266 302.6583 70.5915 162.3534 29844.9577 70.5915 162.3534
ENERGY: 300000 3.0164 11.4908 3.2837 0.0000 -10680.9359 1486.8828 0.0000 0.0000 1825.8939 -7350.3683 310.1541 -9176.2622 -7411.4717 305.3386 530.7588 590.0140 30414.3779 371.7815 427.9675
ENERGY: 600000 4.4878 11.2213 5.0462 0.0000 -10717.0260 1478.3875 0.0000 0.0000 1761.5546 -7456.3287 299.2252 -9217.8832 -7433.1467 302.5941 439.8223 461.1358 30005.3396 231.4869 272.0338
ENERGY: 900000 3.8014 16.9640 5.5298 0.0000 -10573.2994 1337.1433 0.0000 0.0000 1778.8178 -7431.0431 302.1576 -9209.8609 -7450.0983 300.5707 -730.6035 -732.0480 30538.9776 -33.0114 10.3790
ENERGY: 1200000 4.2776 14.0146 5.7334 0.0000 -10674.0985 1431.0777 0.0000 0.0000 1752.8884 -7466.1068 297.7531 -9218.9952 -7445.4908 300.9045 -197.1096 -149.7823 30363.9389 -124.7839 -78.4323
ENERGY: 1500000 4.1239 13.4940 5.0571 0.0000 -10656.5946 1420.7425 0.0000 0.0000 1776.4503 -7436.7267 301.7554 -9213.1771 -7443.0425 301.4265 -88.6140 -34.0754 30185.6646 -61.1261 -13.5088
TCL: Running FEP window  10: Lambda1 0.5499999999999996 Lambda2 0.4999999999999996 [dLambda -0.04999999999999999]
TCL: Setting parameter firsttimestep to 0
TCL: Setting parameter alchLambda to 0.5499999999999996
Info: NONBONDED TABLE R-SQUARED SPACING: 0.0625
Info: NONBONDED TABLE SIZE: 705 POINTS
TCL: Setting parameter alchLambda2 to 0.4999999999999996
Info: NONBONDED TABLE R-SQUARED SPACING: 0.0625
Info: NONBONDED TABLE SIZE: 705 POINTS
TCL: Running for 1500000 steps
ETITLE: TS BOND ANGLE DIHED IMPRP ELECT VDW BOUNDARY MISC KINETIC TOTAL TEMP POTENTIAL TOTALAVG TEMPAVG PRESSURE GPRESSURE VOLUME PRESSAVG GPRESSAVG
ENERGY: 0 4.1239 13.4940 5.0571 0.0000 -10655.6066 1420.9125 0.0000 0.0000 1775.5391 -7436.4799 301.6006 -9212.0190 -7436.4799 301.6006 -122.5781 -42.4009 30185.6646 -122.5781 -42.4009
ENERGY: 300000 2.6626 10.0375 2.8260 0.0000 -10681.5247 1420.7314 0.0000 0.0000 1695.6910 -7549.5761 288.0373 -9245.2672 -7480.2195 297.1534 -114.6841 51.4388 29944.6235 65.8395 176.4286
ENERGY: 600000 1.1572 8.6608 5.8476 0.0000 -10707.1200 1508.3188 0.0000 0.0000 1807.1828 -7375.9528 306.9758 -9183.1356 -7443.2437 297.1590 813.5192 867.9049 30167.6225 194.4315 286.5555
ENERGY: 900000 0.9521 13.0839 4.1446 0.0000 -10688.6693 1462.5047 0.0000 0.0000 1763.3675 -7444.6166 299.5331 -9207.9841 -7451.2742 297.7789 191.1081 187.3910 30892.5179 193.0616 265.2858
ENERGY: 1200000 6.1853 14.0461 6.0124 0.0000 -10656.3999 1357.4044 0.0000 0.0000 1762.3987 -7510.3530 299.3686 -9272.7517 -7455.7831 298.1003 -743.3470 -765.0780 29973.9200 166.0057 230.0929
ENERGY: 1500000 1.2576 11.6451 5.2489 0.0000 -10671.9674 1452.8643 0.0000 0.0000 1786.7744 -7414.1772 303.5091 -9200.9516 -7458.0300 298.6406 75.1397 169.9249 30455.1287 93.1899 152.5790
TCL: Running FEP window  11: Lambda1 0.4999999999999996 Lambda2 0.4499999999999996 [dLambda -0.04999999999999999]
TCL: Setting parameter firsttimestep to 0
TCL: Setting parameter alchLambda to 0.4999999999999996
Info: NONBONDED TABLE R-SQUARED SPACING: 0.0625
Info: NONBONDED TABLE SIZE: 705 POINTS
TCL: Setting parameter alchLambda2 to 0.4499999999999996
Info: NONBONDED TABLE R-SQUARED SPACING: 0.0625
Info: NONBONDED TABLE SIZE: 705 POINTS
TCL: Running for 1500000 steps
ETITLE: TS BOND ANGLE DIHED IMPRP ELECT VDW BOUNDARY MISC KINETIC TOTAL TEMP POTENTIAL TOTALAVG TEMPAVG PRESSURE GPRESSURE VOLUME PRESSAVG GPRESSAVG
ENERGY: 0 1.2576 11.6451 5.2489 0.0000 -10671.8346 1453.1656 0.0000 0.0000 1785.8876 -7414.6298 303.3585 -9200.5175 -7414.6298 303.3585 82.6514 163.0510 30455.1287 82.6514 163.0510
ENERGY: 300000 1.8708 14.2987 3.2292 0.0000 -10656.8001 1392.1624 0.0000 0.0000 1798.0917 -7447.1472 305.4315 -9245.2389 -7449.7198 303.1818 -238.0041 -122.9993 30040.0769 23.7243 85.2552
ENERGY: 600000 1.6279 12.3971 3.4456 0.0000 -10694.0315 1482.9596 0.0000 0.0000 1684.3216 -7509.2797 286.1060 -9193.6013 -7446.5762 299.8221 351.9696 450.7303 30524.5677 13.9754 74.9712
ENERGY: 900000 0.7079 10.9271 3.9153 0.0000 -10702.0084 1488.7445 0.0000 0.0000 1771.7409 -7425.9726 300.9555 -9197.7136 -7452.7082 299.4902 877.6292 917.1922 29957.0774 115.7961 177.9590
ENERGY: 1200000 3.6752 13.1950 4.6434 0.0000 -10639.3061 1425.9543 0.0000 0.0000 1818.9536 -7372.8847 308.9752 -9191.8383 -7443.2812 300.8366 -57.3026 24.6852 30345.9936 86.1788 150.3631
ENERGY: 1500000 3.4634 15.2270 4.6895 0.0000 -10700.9720 1437.7536 0.0000 0.0000 1776.7451 -7463.0934 301.8055 -9239.8385 -7436.6638 301.2698 -60.9153 -13.0668 30383.8546 145.7797 204.2065
TCL: Running FEP window  12: Lambda1 0.4499999999999996 Lambda2 0.39999999999999963 [dLambda -0.04999999999999999]
TCL: Setting parameter firsttimestep to 0
TCL: Setting parameter alchLambda to 0.4499999999999996
Info: NONBONDED TABLE R-SQUARED SPACING: 0.0625
Info: NONBONDED TABLE SIZE: 705 POINTS
TCL: Setting parameter alchLambda2 to 0.39999999999999963
Info: NONBONDED TABLE R-SQUARED SPACING: 0.0625
Info: NONBONDED TABLE SIZE: 705 POINTS
TCL: Running for 1500000 steps
ETITLE: TS BOND ANGLE DIHED IMPRP ELECT VDW BOUNDARY MISC KINETIC TOTAL TEMP POTENTIAL TOTALAVG TEMPAVG PRESSURE GPRESSURE VOLUME PRESSAVG GPRESSAVG
ENERGY: 0 3.4634 15.2270 4.6895 0.0000 -10700.9712 1437.7549 0.0000 0.0000 1775.8470 -7463.9894 301.6529 -9239.8364 -7463.9894 301.6529 -105.5508 -22.8203 30383.8546 -105.5508 -22.8203
ENERGY: 300000 3.9674 13.0128 8.6964 0.0000 -10691.8200 1463.8790 0.0000 0.0000 1803.7847 -7398.4798 306.3986 -9202.2645 -7446.6474 298.9750 412.2515 496.2147 30211.3947 -137.8069 -55.8442
ENERGY: 600000 1.9287 12.0494 4.7260 0.0000 -10707.2468 1499.8716 0.0000 0.0000 1728.2666 -7460.4044 293.5707 -9188.6710 -7450.5107 297.3820 432.2715 535.6329 30457.2992 14.7890 89.9476
ENERGY: 900000 4.5542 11.8161 5.3023 0.0000 -10618.1751 1358.5583 0.0000 0.0000 1736.3993 -7501.5448 294.9522 -9237.9441 -7446.0432 297.4535 -1015.5470 -912.3773 30448.2790 -56.5220 19.8924
ENERGY: 1200000 1.6019 12.5542 5.7251 0.0000 -10734.2339 1486.9861 0.0000 0.0000 1744.2863 -7483.0803 296.2919 -9227.3666 -7449.7345 297.9160 355.8077 419.8911 30169.0696 -93.8326 -23.0159
ENERGY: 1500000 1.7477 14.4645 2.5254 0.0000 -10706.7527 1438.2786 0.0000 0.0000 1699.6613 -7550.0752 288.7117 -9249.7365 -7453.1985 298.2063 -109.6362 -10.3430 30282.5235 -91.4972 -26.2596
TCL: Running FEP window  13: Lambda1 0.39999999999999963 Lambda2 0.34999999999999964 [dLambda -0.04999999999999999]
TCL: Setting parameter firsttimestep to 0
TCL: Setting parameter alchLambda to 0.39999999999999963
Info: NONBONDED TABLE R-SQUARED SPACING: 0.0625
Info: NONBONDED TABLE SIZE: 705 POINTS
TCL: Setting parameter alchLambda2 to 0.34999999999999964
Info: NONBONDED TABLE R-SQUARED SPACING: 0.0625
Info: NONBONDED TABLE SIZE: 705 POINTS
TCL: Running for 1500000 steps
ETITLE: TS BOND ANGLE DIHED IMPRP ELECT VDW BOUNDARY MISC KINETIC TOTAL TEMP POTENTIAL TOTALAVG TEMPAVG PRESSURE GPRESSURE VOLUME PRESSAVG GPRESSAVG
ENERGY: 0 1.7477 14.4645 2.5254 0.0000 -10706.7526 1437.7660 0.0000 0.0000 1698.7570 -7551.4919 288.5581 -9250.2489 -7551.4919 288.5581 -107.8911 -23.3606 30282.5235 -107.8911 -23.3606
ENERGY: 300000 1.2094 19.7861 3.8229 0.0000 -10665.8990 1457.7303 0.0000 0.0000 1738.1387 -7445.2117 295.2476 -9183.3503 -7447.5275 298.6729 299.6959 302.9160 30392.6174 129.5114 155.4122
ENERGY: 600000 4.0870 18.4540 4.3800 0.0000 -10838.6482 1499.4332 0.0000 0.0000 1746.8636 -7565.4303 296.7297 -9312.2940 -7476.5534 297.5921 355.4694 416.4873 30176.7965 -54.8303 -25.0876
ENERGY: 900000 4.3826 16.3286 4.0219 0.0000 -10720.9379 1448.2834 0.0000 0.0000 1744.1211 -7503.8004 296.2638 -9247.9215 -7470.8539 298.1476 8.3588 96.8975 30335.3300 -13.8685 19.5661
ENERGY: 1200000 0.3361 11.2324 3.8457 0.0000 -10731.8610 1425.3807 0.0000 0.0000 1732.8701 -7558.1960 294.3527 -9291.0661 -7462.8402 298.4404 -399.1866 -299.0283 30147.0334 -99.2006 -52.7444
ENERGY: 1500000 4.3262 11.9865 5.1528 0.0000 -10532.4257 1392.6998 0.0000 0.0000 1807.0037 -7311.2566 306.9454 -9118.2603 -7440.1277 299.5776 -568.2004 -496.4527 31277.3634 -113.3888 -65.5909
TCL: Running FEP window  14: Lambda1 0.34999999999999964 Lambda2 0.29999999999999966 [dLambda -0.04999999999999999]
TCL: Setting parameter firsttimestep to 0
TCL: Setting parameter alchLambda to 0.34999999999999964
Info: NONBONDED TABLE R-SQUARED SPACING: 0.0625
Info: NONBONDED TABLE SIZE: 705 POINTS
TCL: Setting parameter alchLambda2 to 0.29999999999999966
Info: NONBONDED TABLE R-SQUARED SPACING: 0.0625
Info: NONBONDED TABLE SIZE: 705 POINTS
TCL: Running for 1500000 steps
ETITLE: TS BOND ANGLE DIHED IMPRP ELECT VDW BOUNDARY MISC KINETIC TOTAL TEMP POTENTIAL TOTALAVG TEMPAVG PRESSURE GPRESSURE VOLUME PRESSAVG GPRESSAVG
ENERGY: 0 4.3262 11.9865 5.1528 0.0000 -10532.4251 1392.4776 0.0000 0.0000 1806.1512 -7312.3306 306.8006 -9118.4818 -7312.3306 306.8006 -572.3846 -502.7008 31277.3634 -572.3846 -502.7008
ENERGY: 300000 5.7906 9.7641 2.4866 0.0000 -10566.9383 1389.7407 0.0000 0.0000 1781.9375 -7377.2188 302.6875 -9159.1563 -7362.0741 305.1526 -447.6035 -434.2195 30912.6842 -427.1104 -389.4089
ENERGY: 600000 2.1222 8.8103 4.5396 0.0000 -10559.0046 1387.0306 0.0000 0.0000 1755.5866 -7400.9153 298.2114 -9156.5019 -7390.5172 302.7572 -343.7514 -199.0263 30331.7581 -382.3562 -312.0961
ENERGY: 900000 1.7124 11.8346 4.5686 0.0000 -10728.9868 1453.0818 0.0000 0.0000 1733.9436 -7523.8457 294.5351 -9257.7893 -7407.8821 301.7648 75.7661 154.7268 30342.6743 -301.3494 -232.0498
ENERGY: 1200000 3.1345 12.8508 3.6033 0.0000 -10608.9401 1433.7864 0.0000 0.0000 1809.4280 -7346.1371 307.3572 -9155.5651 -7408.2235 301.9166 198.0351 269.1116 30227.0723 -242.4944 -168.0179
ENERGY: 1500000 2.4957 15.6002 3.5141 0.0000 -10697.3923 1398.9230 0.0000 0.0000 1780.3236 -7496.5357 302.4134 -9276.8593 -7423.0991 301.3676 -576.8021 -502.0737 30565.2527 -346.8510 -275.2792
TCL: Running FEP window  15: Lambda1 0.29999999999999966 Lambda2 0.24999999999999967 [dLambda -0.04999999999999999]
TCL: Setting parameter firsttimestep to 0
TCL: Setting parameter alchLambda to 0.29999999999999966
Info: NONBONDED TABLE R-SQUARED SPACING: 0.0625
Info: NONBONDED TABLE SIZE: 705 POINTS
TCL: Setting parameter alchLambda2 to 0.24999999999999967
Info: NONBONDED TABLE R-SQUARED SPACING: 0.0625
Info: NONBONDED TABLE SIZE: 705 POINTS
TCL: Running for 1500000 steps
ETITLE: TS BOND ANGLE DIHED IMPRP ELECT VDW BOUNDARY MISC KINETIC TOTAL TEMP POTENTIAL TOTALAVG TEMPAVG PRESSURE GPRESSURE VOLUME PRESSAVG GPRESSAVG
ENERGY: 0 2.4957 15.6002 3.5141 0.0000 -10697.3924 1398.7666 0.0000 0.0000 1779.4694 -7497.5464 302.2683 -9277.0158 -7497.5464 302.2683 -594.3144 -506.1526 30565.2527 -594.3144 -506.1526
ENERGY: 300000 3.1742 11.7251 4.0460 0.0000 -10534.0161 1395.7061 0.0000 0.0000 1721.8889 -7397.4758 292.4874 -9119.3647 -7487.0039 297.0485 -340.3401 -268.7515 30614.6267 -241.0358 -127.8145
ENERGY: 600000 2.6025 9.6291 3.9246 0.0000 -10666.4248 1392.2433 0.0000 0.0000 1776.5317 -7481.4936 301.7693 -9258.0253 -7467.5351 299.6589 -353.3260 -352.6724 30136.7604 -311.7789 -230.5905
ENERGY: 900000 1.4038 7.9445 4.4172 0.0000 -10586.0505 1402.2572 0.0000 0.0000 1744.9712 -7425.0566 296.4082 -9170.0278 -7450.2024 299.4030 -173.0073 -118.6924 30090.1733 -265.4907 -195.1067
ENERGY: 1200000 2.1664 9.2825 5.4094 0.0000 -10707.9382 1479.4784 0.0000 0.0000 1761.5527 -7450.0489 299.2249 -9211.6015 -7448.6690 299.0844 490.6751 521.5656 30184.4174 -173.4285 -110.3889
ENERGY: 1500000 3.3114 14.0177 8.2386 0.0000 -10646.4587 1407.9207 0.0000 0.0000 1738.8559 -7474.1143 295.3695 -9212.9703 -7448.0362 298.7402 -37.5358 -15.4963 30043.9557 -156.7971 -91.6564
TCL: Running FEP window  16: Lambda1 0.24999999999999967 Lambda2 0.19999999999999968 [dLambda -0.04999999999999999]
TCL: Setting parameter firsttimestep to 0
TCL: Setting parameter alchLambda to 0.24999999999999967
Info: NONBONDED TABLE R-SQUARED SPACING: 0.0625
Info: NONBONDED TABLE SIZE: 705 POINTS
TCL: Setting parameter alchLambda2 to 0.19999999999999968
Info: NONBONDED TABLE R-SQUARED SPACING: 0.0625
Info: NONBONDED TABLE SIZE: 705 POINTS
TCL: Running for 1500000 steps
ETITLE: TS BOND ANGLE DIHED IMPRP ELECT VDW BOUNDARY MISC KINETIC TOTAL TEMP POTENTIAL TOTALAVG TEMPAVG PRESSURE GPRESSURE VOLUME PRESSAVG GPRESSAVG
ENERGY: 0 3.3114 14.0177 8.2386 0.0000 -10646.4578 1408.5318 0.0000 0.0000 1737.9754 -7474.3828 295.2199 -9212.3583 -7474.3828 295.2199 -103.1805 -16.2463 30043.9557 -103.1805 -16.2463
ENERGY: 300000 2.0602 11.6985 3.9308 0.0000 -10642.7918 1409.4762 0.0000 0.0000 1828.7692 -7386.8569 310.6425 -9215.6261 -7449.8442 300.9453 -130.2374 -50.1863 30063.7541 16.2690 80.5666
ENERGY: 600000 3.7706 13.8502 3.6076 0.0000 -10731.1093 1479.4471 0.0000 0.0000 1766.6026 -7463.8312 300.0827 -9230.4338 -7440.9736 298.9228 127.2384 246.6268 30292.2318 -67.6203 14.4398
ENERGY: 900000 0.9828 11.7365 2.9783 0.0000 -10746.9635 1494.2755 0.0000 0.0000 1734.2334 -7502.7570 294.5843 -9236.9904 -7455.7856 297.4205 312.3165 384.0161 30153.2028 8.6685 80.8188
ENERGY: 1200000 2.5166 13.1228 5.9329 0.0000 -10598.1610 1349.5481 0.0000 0.0000 1772.2978 -7454.7429 301.0501 -9227.0407 -7458.6820 299.1459 -893.0297 -803.3953 30392.4659 -117.6922 -45.8568
ENERGY: 1500000 1.4786 14.0640 3.0760 0.0000 -10662.7159 1417.1502 0.0000 0.0000 1799.2014 -7427.7457 305.6200 -9226.9471 -7451.1512 300.1898 -120.5709 -4.0318 29986.6493 -201.4240 -126.5584
TCL: Running FEP window  17: Lambda1 0.19999999999999968 Lambda2 0.1499999999999997 [dLambda -0.04999999999999999]
TCL: Setting parameter firsttimestep to 0
TCL: Setting parameter alchLambda to 0.19999999999999968
Info: NONBONDED TABLE R-SQUARED SPACING: 0.0625
Info: NONBONDED TABLE SIZE: 705 POINTS
TCL: Setting parameter alchLambda2 to 0.1499999999999997
Info: NONBONDED TABLE R-SQUARED SPACING: 0.0625
Info: NONBONDED TABLE SIZE: 705 POINTS
TCL: Running for 1500000 steps
ETITLE: TS BOND ANGLE DIHED IMPRP ELECT VDW BOUNDARY MISC KINETIC TOTAL TEMP POTENTIAL TOTALAVG TEMPAVG PRESSURE GPRESSURE VOLUME PRESSAVG GPRESSAVG
ENERGY: 0 1.4786 14.0640 3.0760 0.0000 -10662.7159 1416.3384 0.0000 0.0000 1798.3057 -7429.4533 305.4679 -9227.7590 -7429.4533 305.4679 -98.0190 -14.8176 29986.6493 -98.0190 -14.8176
ENERGY: 300000 2.7798 18.4848 3.1249 0.0000 -10579.2494 1388.0610 0.0000 0.0000 1789.7669 -7377.0320 304.0174 -9166.7989 -7411.1420 303.9601 -261.7597 -231.6072 30371.6184 -21.9514 51.4628
ENERGY: 600000 5.0598 11.6333 4.7519 0.0000 -10718.1662 1474.6903 0.0000 0.0000 1767.6762 -7454.3546 300.2650 -9222.0309 -7406.2206 302.3960 342.9283 324.9765 30092.8299 39.9590 87.9687
ENERGY: 900000 2.0136 6.5716 4.7982 0.0000 -10618.7496 1393.8518 0.0000 0.0000 1730.1618 -7481.3525 293.8927 -9211.5143 -7423.5005 300.5488 -387.4595 -294.3746 30194.5662 -12.8150 45.9456
ENERGY: 1200000 2.7087 14.1128 6.6388 0.0000 -10763.4790 1478.9812 0.0000 0.0000 1767.1459 -7493.8917 300.1749 -9261.0376 -7435.8668 300.8046 188.3920 256.7442 29968.2081 67.8719 129.7363
ENERGY: 1500000 1.3864 16.3703 6.8673 0.0000 -10631.6797 1431.5590 0.0000 0.0000 1748.8997 -7426.5970 297.0756 -9175.4967 -7431.3442 300.7018 96.1782 177.9092 30009.1117 47.8715 109.0543
TCL: Running FEP window  18: Lambda1 0.1499999999999997 Lambda2 0.09999999999999969 [dLambda -0.05 ]
TCL: Setting parameter firsttimestep to 0
TCL: Setting parameter alchLambda to 0.1499999999999997
Info: NONBONDED TABLE R-SQUARED SPACING: 0.0625
Info: NONBONDED TABLE SIZE: 705 POINTS
TCL: Setting parameter alchLambda2 to 0.09999999999999969
Info: NONBONDED TABLE R-SQUARED SPACING: 0.0625
Info: NONBONDED TABLE SIZE: 705 POINTS
TCL: Running for 1500000 steps
ETITLE: TS BOND ANGLE DIHED IMPRP ELECT VDW BOUNDARY MISC KINETIC TOTAL TEMP POTENTIAL TOTALAVG TEMPAVG PRESSURE GPRESSURE VOLUME PRESSAVG GPRESSAVG
ENERGY: 0 1.3863 16.3703 6.8673 0.0000 -10631.6797 1430.5443 0.0000 0.0000 1747.9970 -7428.5145 296.9222 -9176.5115 -7428.5145 296.9222 91.2744 167.3055 30009.1117 91.2744 167.3055
ENERGY: 300000 3.4522 12.8884 4.2316 0.0000 -10675.3251 1404.0441 0.0000 0.0000 1761.0299 -7489.6789 299.1360 -9250.7088 -7428.3182 299.2430 -367.8078 -280.4422 30190.6973 205.1488 259.6587
ENERGY: 600000 6.6931 9.9159 5.4928 0.0000 -10615.0936 1428.2247 0.0000 0.0000 1834.0957 -7330.6714 311.5473 -9164.7671 -7422.1853 300.6324 131.7722 142.3770 29781.1331 230.0456 274.0520
ENERGY: 900000 2.3160 15.1318 3.9299 0.0000 -10742.9425 1493.5148 0.0000 0.0000 1744.8899 -7483.1601 296.3944 -9228.0500 -7428.4251 300.2744 478.0442 624.2566 29693.7608 217.5322 273.1442
ENERGY: 1200000 3.4319 13.7632 6.0225 0.0000 -10530.3796 1320.0184 0.0000 0.0000 1838.8919 -7348.2516 312.3620 -9187.1435 -7425.4926 300.9839 -939.3456 -872.9987 30413.5352 131.0875 188.0602
ENERGY: 1500000 1.9123 10.4080 6.3972 0.0000 -10667.6753 1412.3764 0.0000 0.0000 1785.0769 -7451.5045 303.2208 -9236.5814 -7423.3379 301.6563 -177.3356 -95.6660 30232.7377 166.8938 223.5507
TCL: Running FEP window  19: Lambda1 0.09999999999999969 Lambda2 0.049999999999999684 [dLambda -0.05 ]
TCL: Setting parameter firsttimestep to 0
TCL: Setting parameter alchLambda to 0.09999999999999969
Info: NONBONDED TABLE R-SQUARED SPACING: 0.0625
Info: NONBONDED TABLE SIZE: 705 POINTS
TCL: Setting parameter alchLambda2 to 0.049999999999999684
Info: NONBONDED TABLE R-SQUARED SPACING: 0.0625
Info: NONBONDED TABLE SIZE: 705 POINTS
TCL: Running for 1500000 steps
ETITLE: TS BOND ANGLE DIHED IMPRP ELECT VDW BOUNDARY MISC KINETIC TOTAL TEMP POTENTIAL TOTALAVG TEMPAVG PRESSURE GPRESSURE VOLUME PRESSAVG GPRESSAVG
ENERGY: 0 1.9123 10.4080 6.3972 0.0000 -10667.6742 1412.4211 0.0000 0.0000 1784.1764 -7452.3592 303.0678 -9236.5356 -7452.3592 303.0678 -182.8956 -100.3781 30232.7377 -182.8956 -100.3781
ENERGY: 300000 3.0472 8.5046 4.8542 0.0000 -10650.6577 1440.1735 0.0000 0.0000 1771.0912 -7422.9870 300.8451 -9194.0782 -7469.1251 299.1289 133.6131 207.3181 30002.2090 -127.3243 -45.7938
ENERGY: 600000 1.9673 12.1384 4.4911 0.0000 -10733.7156 1498.6700 0.0000 0.0000 1761.7988 -7454.6500 299.2667 -9216.4488 -7467.7694 298.3750 452.8619 539.0810 30017.5981 177.0242 235.8589
ENERGY: 900000 3.6470 13.9224 6.2678 0.0000 -10730.5337 1449.3320 0.0000 0.0000 1764.8811 -7492.4834 299.7902 -9257.3645 -7470.3129 298.3149 -33.1206 7.2843 30249.0365 116.2475 172.3738
ENERGY: 1200000 1.1443 16.4293 6.5648 0.0000 -10623.3882 1412.3092 0.0000 0.0000 1768.8381 -7418.1026 300.4624 -9186.9407 -7463.7088 298.6189 -253.7671 -226.5029 30357.6794 114.1854 170.2861
ENERGY: 1500000 6.0299 9.4172 7.0446 0.0000 -10659.7581 1400.2321 0.0000 0.0000 1769.3065 -7467.7279 300.5419 -9237.0344 -7460.0079 299.4368 -344.6163 -246.5292 29863.8115 55.0681 111.4238
TCL: Running FEP window  20: Lambda1 0.049999999999999684 Lambda2 0.0    [dLambda -0.049999999999999684]
TCL: Setting parameter firsttimestep to 0
TCL: Setting parameter alchLambda to 0.049999999999999684
Info: NONBONDED TABLE R-SQUARED SPACING: 0.0625
Info: NONBONDED TABLE SIZE: 705 POINTS
TCL: Setting parameter alchLambda2 to 0.0
Info: NONBONDED TABLE R-SQUARED SPACING: 0.0625
Info: NONBONDED TABLE SIZE: 705 POINTS
TCL: Running for 1500000 steps
ETITLE: TS BOND ANGLE DIHED IMPRP ELECT VDW BOUNDARY MISC KINETIC TOTAL TEMP POTENTIAL TOTALAVG TEMPAVG PRESSURE GPRESSURE VOLUME PRESSAVG GPRESSAVG
ENERGY: 0 6.0299 9.4172 7.0446 0.0000 -10659.7564 1399.9829 0.0000 0.0000 1768.4334 -7468.8484 300.3936 -9237.2818 -7468.8484 300.3936 -338.9404 -251.1319 29863.8115 -338.9404 -251.1319
ENERGY: 300000 3.2974 15.9600 7.5650 0.0000 -10629.3580 1418.6544 0.0000 0.0000 1790.1152 -7393.7661 304.0766 -9183.8813 -7438.0438 301.6425 32.7314 64.1018 29850.8009 -284.3520 -247.5354
ENERGY: 600000 3.4920 16.0109 5.1972 0.0000 -10640.3670 1474.3621 0.0000 0.0000 1754.4825 -7386.8222 298.0239 -9141.3047 -7446.5000 301.0962 589.4402 605.7173 30206.5705 -164.3089 -112.9237
ENERGY: 900000 1.1916 11.2338 3.2001 0.0000 -10672.4350 1407.0586 0.0000 0.0000 1843.4326 -7406.3182 313.1333 -9249.7508 -7461.2211 300.7509 -417.6550 -345.8639 30540.5290 -135.4143 -84.6293
ENERGY: 1200000 4.5260 9.8364 4.3610 0.0000 -10682.8812 1452.7211 0.0000 0.0000 1791.1960 -7420.2406 304.2602 -9211.4366 -7449.5399 300.7016 517.1000 472.2387 29314.8459 -119.5559 -78.2239
ENERGY: 1500000 3.4854 14.6143 4.7985 0.0000 -10718.9799 1418.5322 0.0000 0.0000 1735.3134 -7542.2362 294.7677 -9277.5496 -7455.0088 300.5096 -350.8429 -184.8916 29871.2694 -194.7376 -143.1479
TCL: Exiting due to exit command.
