Info: SIMULATION PARAMETERS:
Info: TIMESTEP               2
Info: NUMBER OF STEPS        0
Info: STEPS PER CYCLE        10
Info: PERIODIC CELL BASIS 1  30.735 0 0
Info: PERIODIC CELL BASIS 2  0 30.0972 0
Info: PERIODIC CELL BASIS 3  0 0 32.138
Info: PERIODIC CELL CENTER   0 0 0
Info: WRAPPING WATERS AROUND PERIODIC BOUNDARIES ON OUTPUT.
Info: WRAPPING ALL CLUSTERS AROUND PERIODIC BOUNDARIES ON OUTPUT.
Info: FIRST LDB TIMESTEP     50
Info: LAST LDB TIMESTEP     -1
Info: HOM BACKGROUND SCALING 1
Info: PME BACKGROUND SCALING 1
Info: MIN ATOMS PER PATCH    40
Info: EMPTY PATCH LOAD       40 ATOMS
Info: VELOCITY FILE          mobley_1323538_equil.vel
Info: CENTER OF MASS MOVING INITIALLY? NO
Info: DIELECTRIC             1
Info: EXCLUDE                SCALED ONE-FOUR
Info: 1-4 ELECTROSTATICS SCALED BY 0.833333
Info: MODIFIED 1-4 VDW PARAMETERS WILL BE USED
Info: DCD FILENAME           mobley_1323538_prod.dcd
Info: DCD FREQUENCY          100000
Info: DCD FIRST STEP         100000
Info: DCD FILE WILL CONTAIN UNIT CELL DATA
Info: XST FILENAME           mobley_1323538_prod.xst
Info: XST FREQUENCY          100000
Info: NO VELOCITY DCD OUTPUT
Info: NO FORCE DCD OUTPUT
Info: OUTPUT FILENAME        mobley_1323538_prod
Info: BINARY OUTPUT FILES WILL BE USED
Info: RESTART FILENAME       mobley_1323538_prod.restart
Info: RESTART FREQUENCY      100000
Info: BINARY RESTART FILES WILL BE USED
Info: CUTOFF                 9
Info: PAIRLIST DISTANCE      11
Info: PAIRLIST SHRINK RATE   0.01
Info: PAIRLIST GROW RATE     0.01
Info: PAIRLIST TRIGGER       0.3
Info: PAIRLISTS PER CYCLE    2
Info: PAIRLISTS ENABLED
Info: MARGIN                 2
Info: HYDROGEN GROUP CUTOFF  2.5
Info: PATCH DIMENSION        15.5
Info: ENERGY OUTPUT STEPS    100000
Info: ENERGY EVALUATION STEPS    100000
Info: OUTPUT ENERGY PRECISION 4
Info: CROSSTERM ENERGY INCLUDED IN DIHEDRAL
Info: TIMING OUTPUT STEPS    1000000
Info: PRESSURE OUTPUT STEPS  100000
Info: ALCHEMICAL FEP ON
Info: FEP CURRENT LAMBDA VALUE     0
Info: FEP COMPARISON LAMBDA VALUE  0.05
Info: FEP INTRA-ALCHEMICAL NON-BONDED INTERACTIONS WILL BE RETAINED
Info: FEP INTRA-ALCHEMICAL BONDED INTERACTIONS WILL BE RETAINED
Info: FEP VDW SHIFTING COEFFICIENT 5
Info: FEP ELEC. ACTIVE FOR ANNIHILATED PARTICLES BETWEEN LAMBDA = 0 AND LAMBDA = 0.5
Info: FEP ELEC. ACTIVE FOR EXNIHILATED PARTICLES BETWEEN LAMBDA = 0.5 AND LAMBDA = 1
Info: FEP VDW ACTIVE FOR ANNIHILATED PARTICLES BETWEEN LAMBDA = 0 AND LAMBDA = 1
Info: FEP VDW ACTIVE FOR EXNIHILATED PARTICLES BETWEEN LAMBDA = 0 AND LAMBDA = 1
Info: FEP BOND ACTIVE FOR ANNIHILATED PARTICLES BETWEEN LAMBDA = 1 AND LAMBDA = 1
Info: FEP BOND ACTIVE FOR EXNIHILATED PARTICLES BETWEEN LAMBDA = 0 AND LAMBDA = 0
Info: LANGEVIN DYNAMICS ACTIVE
Info: LANGEVIN TEMPERATURE   300
Info: LANGEVIN USING BBK INTEGRATOR
Info: LANGEVIN DAMPING COEFFICIENT IS 1 INVERSE PS
Info: LANGEVIN DYNAMICS APPLIED TO HYDROGENS
Info: LANGEVIN PISTON PRESSURE CONTROL ACTIVE
Info:        TARGET PRESSURE IS 1.01325 BAR
Info:     OSCILLATION PERIOD IS 50 FS
Info:             DECAY TIME IS 25 FS
Info:     PISTON TEMPERATURE IS 300 K
Info:       PRESSURE CONTROL IS GROUP-BASED
Info:    INITIAL STRAIN RATE IS 0.000561434 0.000561434 0.000561434
Info:       CELL FLUCTUATION IS ISOTROPIC
Info: PARTICLE MESH EWALD (PME) ACTIVE
Info: PME TOLERANCE               1e-06
Info: PME EWALD COEFFICIENT       0.348832
Info: PME INTERPOLATION ORDER     4
Info: PME GRID DIMENSIONS         32 32 36
Info: PME MAXIMUM GRID SPACING    1
Info: PME CALCULATION WILL BE PERFORMED ON GPU
Info: FULL ELECTROSTATIC EVALUATION FREQUENCY      2
Info: USING VERLET I (r-RESPA) MTS SCHEME.
Info: C1 SPLITTING OF LONG RANGE ELECTROSTATICS
Info: PLACING ATOMS IN PATCHES BY HYDROGEN GROUPS
Info: RIGID BONDS TO HYDROGEN : ALL
Info:         ERROR TOLERANCE : 1e-08
Info:          MAX ITERATIONS : 100
Info: RIGID WATER USING SETTLE ALGORITHM
Info: RANDOM NUMBER SEED     1744061058
Info: USE HYDROGEN BONDS?    NO
Info: Using AMBER format force field!
Info: AMBER PARM FILE        mobley_1323538.prmtop
Info: COORDINATE PDB         mobley_1323538.pdb
Info: Exclusions will be read from PARM file!
Info: SCNB (VDW SCALING)     2
Info: USING ARITHMETIC MEAN TO COMBINE L-J SIGMA PARAMETERS
Info: BINARY COORDINATES     mobley_1323538_equil.coor
Info: SUMMARY OF PARAMETERS:
Info: 8 BONDS
Info: 9 ANGLES
Info:   9 HARMONIC
Info:   0 COSINE-BASED
Info: 9 DIHEDRAL
Info: 0 IMPROPER
Info: 0 CROSSTERM
Info: 0 VDW
Info: 36 VDW_PAIRS
Info: 0 NBTHOLE_PAIRS
Info: To read alchdata from file: mobley_1323538.pdb
Info: To read alchflag data from column: 5
Info: STRUCTURE SUMMARY:
Info: 2915 ATOMS
Info: 2914 BONDS
Info: 45 ANGLES
Info: 66 DIHEDRALS
Info: 0 IMPROPERS
Info: 0 CROSSTERMS
Info: 3004 EXCLUSIONS
Info: 2904 RIGID BONDS
Info: ALCH: 0 ATOMS TO DISAPPEAR IN FINAL STATE
Info: ALCH: 26 ATOMS TO APPEAR IN FINAL STATE
Info: 5841 DEGREES OF FREEDOM
Info: 974 HYDROGEN GROUPS
Info: 4 ATOMS IN LARGEST HYDROGEN GROUP
Info: 974 MIGRATION GROUPS
Info: 4 ATOMS IN LARGEST MIGRATION GROUP
Info: TOTAL MASS = 17531.6 amu
Info: TOTAL CHARGE = 0.000700101 e
Info: MASS DENSITY = 0.979268 g/cm^3
Info: ATOM DENSITY = 0.0980529 atoms/A^3
Info: ADDED 0 IMPLICIT EXCLUSIONS
Info: NONBONDED TABLE R-SQUARED SPACING: 0.0625
Info: NONBONDED TABLE SIZE: 705 POINTS
Info: REMOVING COM VELOCITY -0.0631331 -0.144908 -0.174912
Info: Use 3D box decompostion in PME FFT.
Info: Updated CUDA force table with 4096 elements.
Info: Updated CUDA LJ table with 8 x 8 elements.
Info: Found 29 unique exclusion lists needing 92 bytes
TCL: Running for 1500000 steps
ETITLE: TS BOND ANGLE DIHED IMPRP ELECT VDW BOUNDARY MISC KINETIC TOTAL TEMP POTENTIAL TOTALAVG TEMPAVG PRESSURE GPRESSURE VOLUME PRESSAVG GPRESSAVG
ENERGY: 0 2.7628 14.0247 19.8002 0.0000 -10662.7384 1411.7839 0.0000 0.0000 1754.0680 -7460.2987 302.2384 -9214.3668 -7460.2987 302.2384 -291.2643 -208.1055 29728.8551 -291.2643 -208.1055
ENERGY: 300000 1.4624 15.5142 22.0939 0.0000 -10759.8631 1500.2746 0.0000 0.0000 1765.9605 -7454.5575 304.2875 -9220.5180 -7405.3871 305.3082 381.6933 373.5120 29690.9179 -176.3293 -128.1399
ENERGY: 600000 3.0446 11.5764 21.4814 0.0000 -10477.2654 1316.8888 0.0000 0.0000 1779.0038 -7345.2704 306.5350 -9124.2742 -7400.9721 303.5413 -508.3156 -470.8980 29665.5352 -257.4772 -190.1232
ENERGY: 900000 1.4334 13.3662 24.8118 0.0000 -10661.8147 1445.1456 0.0000 0.0000 1751.9141 -7425.1436 301.8672 -9177.0577 -7411.7743 302.6688 -68.4082 43.9800 29632.7885 -71.5359 -3.9439
ENERGY: 1200000 3.5155 12.8873 23.5335 0.0000 -10701.1200 1490.5270 0.0000 0.0000 1724.6433 -7446.0133 297.1683 -9170.6566 -7410.2193 302.4044 757.4724 860.2733 29592.0925 -83.3767 -15.3901
ENERGY: 1500000 1.7447 10.5033 21.4206 0.0000 -10778.8454 1480.0488 0.0000 0.0000 1748.7694 -7516.3586 301.3254 -9265.1279 -7413.7207 302.4688 468.2875 407.1534 29526.6500 -77.3711 -18.2351
TCL: Running FEP window   2: Lambda1 0.05   Lambda2 0.1    [dLambda 0.05  ]
TCL: Setting parameter firsttimestep to 0
TCL: Setting parameter alchLambda to 0.05
Info: NONBONDED TABLE R-SQUARED SPACING: 0.0625
Info: NONBONDED TABLE SIZE: 705 POINTS
TCL: Setting parameter alchLambda2 to 0.1
Info: NONBONDED TABLE R-SQUARED SPACING: 0.0625
Info: NONBONDED TABLE SIZE: 705 POINTS
TCL: Running for 1500000 steps
ETITLE: TS BOND ANGLE DIHED IMPRP ELECT VDW BOUNDARY MISC KINETIC TOTAL TEMP POTENTIAL TOTALAVG TEMPAVG PRESSURE GPRESSURE VOLUME PRESSAVG GPRESSAVG
ENERGY: 0 1.7447 10.5033 21.4206 0.0000 -10778.8456 1483.4068 0.0000 0.0000 1747.8833 -7513.8869 301.1727 -9261.7702 -7513.8869 301.1727 361.6724 415.4768 29526.6500 361.6724 415.4768
ENERGY: 300000 1.7133 12.1830 24.0524 0.0000 -10555.8930 1391.2762 0.0000 0.0000 1768.9037 -7357.7643 304.7947 -9126.6680 -7424.3742 301.8670 -149.6588 -86.4920 29914.9639 119.8453 175.5396
ENERGY: 600000 2.1591 11.8196 25.7341 0.0000 -10638.6403 1452.3475 0.0000 0.0000 1798.6676 -7347.9124 309.9232 -9146.5800 -7406.3822 302.6977 402.2120 506.2266 29748.9862 285.9992 344.3475
ENERGY: 900000 2.2479 12.6236 25.0490 0.0000 -10633.2708 1458.7530 0.0000 0.0000 1760.2303 -7374.3670 303.3002 -9134.5973 -7402.8441 301.8506 533.8401 545.3947 29485.9115 246.6756 295.9836
ENERGY: 1200000 2.4706 9.1981 18.3785 0.0000 -10659.5117 1415.7402 0.0000 0.0000 1692.0602 -7521.6641 291.5540 -9213.7243 -7409.2609 300.3327 -267.6481 -179.4121 29581.7053 222.3897 271.3428
ENERGY: 1500000 1.2453 8.2379 18.9707 0.0000 -10450.5786 1317.8849 0.0000 0.0000 1807.6790 -7296.5608 311.4759 -9104.2398 -7401.4774 300.8463 -667.0322 -632.0268 30021.2222 121.4908 173.0250
TCL: Running FEP window   3: Lambda1 0.1    Lambda2 0.15000000000000002 [dLambda 0.05000000000000002]
TCL: Setting parameter firsttimestep to 0
TCL: Setting parameter alchLambda to 0.1
Info: NONBONDED TABLE R-SQUARED SPACING: 0.0625
Info: NONBONDED TABLE SIZE: 705 POINTS
TCL: Setting parameter alchLambda2 to 0.15000000000000002
Info: NONBONDED TABLE R-SQUARED SPACING: 0.0625
Info: NONBONDED TABLE SIZE: 705 POINTS
TCL: Running for 1500000 steps
ETITLE: TS BOND ANGLE DIHED IMPRP ELECT VDW BOUNDARY MISC KINETIC TOTAL TEMP POTENTIAL TOTALAVG TEMPAVG PRESSURE GPRESSURE VOLUME PRESSAVG GPRESSAVG
ENERGY: 0 1.2453 8.2379 18.9707 0.0000 -10450.5775 1319.7700 0.0000 0.0000 1806.8190 -7295.5345 311.3278 -9102.3536 -7295.5345 311.3278 -695.8606 -622.5027 30021.2222 -695.8606 -622.5027
ENERGY: 300000 1.8807 7.6789 19.8238 0.0000 -10577.0389 1314.2681 0.0000 0.0000 1795.2417 -7438.1457 309.3329 -9233.3874 -7407.2111 301.1439 -1350.4009 -1210.0242 30326.8471 -552.0801 -443.0883
ENERGY: 600000 3.0092 10.4527 22.1353 0.0000 -10586.8724 1388.5678 0.0000 0.0000 1678.1902 -7484.5172 289.1641 -9162.7074 -7422.6517 297.8182 -470.6594 -418.6302 30189.1686 -412.6615 -318.1201
ENERGY: 900000 2.7635 13.6950 21.1282 0.0000 -10505.1408 1393.6246 0.0000 0.0000 1702.6035 -7371.3261 293.3707 -9073.9295 -7395.1000 298.5925 -16.7792 27.3797 29607.8759 -351.6851 -272.5386
ENERGY: 1200000 1.4078 8.6297 20.5040 0.0000 -10574.4148 1384.7311 0.0000 0.0000 1757.7343 -7401.4079 302.8701 -9159.1422 -7399.3876 299.2739 -287.5325 -237.1502 29913.4330 -298.8239 -230.3342
ENERGY: 1500000 3.9909 9.2174 20.8461 0.0000 -10727.5932 1462.5600 0.0000 0.0000 1693.6588 -7537.3200 291.8294 -9230.9788 -7400.4907 299.2331 161.8682 236.4520 29542.5309 -217.3460 -155.0650
TCL: Running FEP window   4: Lambda1 0.15000000000000002 Lambda2 0.2    [dLambda 0.04999999999999999]
TCL: Setting parameter firsttimestep to 0
TCL: Setting parameter alchLambda to 0.15000000000000002
Info: NONBONDED TABLE R-SQUARED SPACING: 0.0625
Info: NONBONDED TABLE SIZE: 705 POINTS
TCL: Setting parameter alchLambda2 to 0.2
Info: NONBONDED TABLE R-SQUARED SPACING: 0.0625
Info: NONBONDED TABLE SIZE: 705 POINTS
TCL: Running for 1500000 steps
ETITLE: TS BOND ANGLE DIHED IMPRP ELECT VDW BOUNDARY MISC KINETIC TOTAL TEMP POTENTIAL TOTALAVG TEMPAVG PRESSURE GPRESSURE VOLUME PRESSAVG GPRESSAVG
ENERGY: 0 3.9909 9.2174 20.8461 0.0000 -10727.5939 1465.5330 0.0000 0.0000 1692.7964 -7535.2099 291.6808 -9228.0064 -7535.2099 291.6808 185.0608 252.8322 29542.5309 185.0608 252.8322
ENERGY: 300000 2.3423 12.5119 20.1058 0.0000 -10701.7926 1491.2415 0.0000 0.0000 1730.6096 -7444.9816 298.1963 -9175.5912 -7430.1134 297.4101 597.7039 699.0316 29578.8676 174.9426 256.9903
ENERGY: 600000 3.0164 16.7669 22.6838 0.0000 -10700.3355 1492.9529 0.0000 0.0000 1759.3620 -7405.5534 303.1506 -9164.9154 -7411.9178 298.7865 581.4580 560.2904 29577.8345 323.0812 378.6116
ENERGY: 900000 3.1935 11.0657 25.4678 0.0000 -10599.9737 1424.5760 0.0000 0.0000 1717.5324 -7418.1384 295.9430 -9135.6707 -7413.4769 300.0066 191.5498 238.5380 29562.3285 360.8916 422.6039
ENERGY: 1200000 2.4940 12.8211 20.3297 0.0000 -10582.4066 1389.9160 0.0000 0.0000 1696.8248 -7460.0210 292.3750 -9156.8458 -7415.9041 299.8460 -214.6580 -133.5401 29542.3324 261.4612 324.1055
ENERGY: 1500000 3.5009 17.5604 22.1614 0.0000 -10583.5012 1387.3031 0.0000 0.0000 1743.7001 -7409.2753 300.4519 -9152.9753 -7407.5933 300.3459 -595.7283 -556.8931 30085.4503 104.9249 165.7008
TCL: Running FEP window   5: Lambda1 0.2    Lambda2 0.25   [dLambda 0.04999999999999999]
TCL: Setting parameter firsttimestep to 0
TCL: Setting parameter alchLambda to 0.2
Info: NONBONDED TABLE R-SQUARED SPACING: 0.0625
Info: NONBONDED TABLE SIZE: 705 POINTS
TCL: Setting parameter alchLambda2 to 0.25
Info: NONBONDED TABLE R-SQUARED SPACING: 0.0625
Info: NONBONDED TABLE SIZE: 705 POINTS
TCL: Running for 1500000 steps
ETITLE: TS BOND ANGLE DIHED IMPRP ELECT VDW BOUNDARY MISC KINETIC TOTAL TEMP POTENTIAL TOTALAVG TEMPAVG PRESSURE GPRESSURE VOLUME PRESSAVG GPRESSAVG
ENERGY: 0 3.5009 17.5604 22.1614 0.0000 -10583.5013 1390.8456 0.0000 0.0000 1742.8452 -7406.5878 300.3046 -9149.4329 -7406.5878 300.3046 -609.3154 -530.6717 30085.4503 -609.3154 -530.6717
ENERGY: 300000 3.8653 16.8835 21.3118 0.0000 -10564.2161 1391.9348 0.0000 0.0000 1747.5343 -7382.6863 301.1126 -9130.2206 -7382.4572 301.3999 -76.2550 -101.7548 30024.4296 -69.3010 -23.2308
ENERGY: 600000 2.7147 10.2076 19.8805 0.0000 -10667.5018 1397.9752 0.0000 0.0000 1725.8595 -7510.8643 297.3778 -9236.7238 -7404.3683 300.4032 -510.0016 -416.0650 29749.4224 -101.4356 -43.7965
ENERGY: 900000 5.6320 14.6969 24.6041 0.0000 -10706.7720 1445.0588 0.0000 0.0000 1744.9702 -7471.8100 300.6708 -9216.7802 -7405.2902 301.1737 -28.9913 -52.3525 29996.2088 18.6043 69.3000
ENERGY: 1200000 3.1167 7.7304 24.7867 0.0000 -10636.2095 1448.3023 0.0000 0.0000 1735.0812 -7417.1922 298.9668 -9152.2734 -7402.6319 300.8179 203.3922 277.7247 29580.6799 -49.6066 1.6550
ENERGY: 1500000 2.4887 9.8725 20.6134 0.0000 -10584.7534 1393.4375 0.0000 0.0000 1801.4573 -7356.8838 310.4039 -9158.3412 -7399.0680 301.3589 30.0376 47.9468 29571.4956 24.4931 81.9150
TCL: Running FEP window   6: Lambda1 0.25   Lambda2 0.3    [dLambda 0.04999999999999999]
TCL: Setting parameter firsttimestep to 0
TCL: Setting parameter alchLambda to 0.25
Info: NONBONDED TABLE R-SQUARED SPACING: 0.0625
Info: NONBONDED TABLE SIZE: 705 POINTS
TCL: Setting parameter alchLambda2 to 0.3
Info: NONBONDED TABLE R-SQUARED SPACING: 0.0625
Info: NONBONDED TABLE SIZE: 705 POINTS
TCL: Running for 1500000 steps
ETITLE: TS BOND ANGLE DIHED IMPRP ELECT VDW BOUNDARY MISC KINETIC TOTAL TEMP POTENTIAL TOTALAVG TEMPAVG PRESSURE GPRESSURE VOLUME PRESSAVG GPRESSAVG
ENERGY: 0 2.4887 9.8725 20.6134 0.0000 -10584.7533 1393.4510 0.0000 0.0000 1800.6242 -7357.7035 310.2603 -9158.3277 -7357.7035 310.2603 -35.5102 52.7862 29571.4956 -35.5102 52.7862
ENERGY: 300000 4.6376 14.5948 23.0316 0.0000 -10616.0831 1427.2618 0.0000 0.0000 1759.7315 -7386.8259 303.2142 -9146.5574 -7394.8683 304.8632 28.0057 42.3869 30354.1626 -112.9966 -47.5043
ENERGY: 600000 1.8469 8.4243 22.5240 0.0000 -10563.6483 1379.6957 0.0000 0.0000 1715.0473 -7436.1101 295.5148 -9151.1574 -7393.4292 302.6508 -230.5350 -192.9137 29610.1844 -116.1470 -63.3984
ENERGY: 900000 2.7592 10.4382 19.2814 0.0000 -10679.6161 1466.1469 0.0000 0.0000 1731.2073 -7449.7832 298.2993 -9180.9905 -7402.2627 301.9366 102.4059 143.0516 30124.4329 -64.1954 -20.6916
ENERGY: 1200000 2.9221 9.7341 19.3896 0.0000 -10553.2463 1451.3703 0.0000 0.0000 1750.9806 -7318.8497 301.7064 -9069.8303 -7396.1642 301.6857 474.5931 474.7572 29802.4565 -82.0179 -34.5662
ENERGY: 1500000 1.7138 7.4830 25.2446 0.0000 -10429.1864 1371.7669 0.0000 0.0000 1701.8234 -7321.1547 293.2363 -9022.9781 -7394.1384 301.1615 -158.4968 -57.1778 29982.4170 -130.5655 -76.7396
TCL: Running FEP window   7: Lambda1 0.3    Lambda2 0.35   [dLambda 0.04999999999999999]
TCL: Setting parameter firsttimestep to 0
TCL: Setting parameter alchLambda to 0.3
Info: NONBONDED TABLE R-SQUARED SPACING: 0.0625
Info: NONBONDED TABLE SIZE: 705 POINTS
TCL: Setting parameter alchLambda2 to 0.35
Info: NONBONDED TABLE R-SQUARED SPACING: 0.0625
Info: NONBONDED TABLE SIZE: 705 POINTS
TCL: Running for 1500000 steps
ETITLE: TS BOND ANGLE DIHED IMPRP ELECT VDW BOUNDARY MISC KINETIC TOTAL TEMP POTENTIAL TOTALAVG TEMPAVG PRESSURE GPRESSURE VOLUME PRESSAVG GPRESSAVG
ENERGY: 0 1.7138 7.4830 25.2446 0.0000 -10429.1843 1371.8021 0.0000 0.0000 1700.9551 -7321.9857 293.0866 -9022.9408 -7321.9857 293.0866 -135.0357 -51.9503 29982.4170 -135.0357 -51.9503
ENERGY: 300000 3.5762 7.2671 20.3610 0.0000 -10617.2199 1420.8802 0.0000 0.0000 1709.6496 -7455.4858 294.5848 -9165.1354 -7365.2614 297.3387 -29.1448 84.9670 29776.5963 -77.1990 -7.3006
ENERGY: 600000 4.7972 12.0068 19.0858 0.0000 -10641.5331 1415.6179 0.0000 0.0000 1662.9133 -7527.1121 286.5318 -9190.0254 -7410.4902 297.5649 -73.9971 20.0284 29706.2894 5.2627 73.2163
ENERGY: 900000 1.5934 12.2263 20.2354 0.0000 -10560.8194 1389.0499 0.0000 0.0000 1802.8402 -7334.8741 310.6422 -9137.7143 -7410.3223 298.6580 -400.8376 -333.4540 30331.7733 -128.3734 -65.5505
ENERGY: 1200000 2.9904 9.9537 23.4092 0.0000 -10753.4631 1479.2064 0.0000 0.0000 1762.5638 -7475.3396 303.7023 -9237.9034 -7417.3726 298.9698 107.6764 229.7605 29837.6825 -158.6084 -92.6874
ENERGY: 1500000 3.1463 13.0721 18.7357 0.0000 -10587.5040 1390.0685 0.0000 0.0000 1773.5727 -7388.9086 305.5992 -9162.4814 -7407.6007 299.9479 -213.5260 -118.5872 29561.1438 -118.7620 -50.7780
TCL: Running FEP window   8: Lambda1 0.35   Lambda2 0.39999999999999997 [dLambda 0.04999999999999999]
TCL: Setting parameter firsttimestep to 0
TCL: Setting parameter alchLambda to 0.35
Info: NONBONDED TABLE R-SQUARED SPACING: 0.0625
Info: NONBONDED TABLE SIZE: 705 POINTS
TCL: Setting parameter alchLambda2 to 0.39999999999999997
Info: NONBONDED TABLE R-SQUARED SPACING: 0.0625
Info: NONBONDED TABLE SIZE: 705 POINTS
TCL: Running for 1500000 steps
ETITLE: TS BOND ANGLE DIHED IMPRP ELECT VDW BOUNDARY MISC KINETIC TOTAL TEMP POTENTIAL TOTALAVG TEMPAVG PRESSURE GPRESSURE VOLUME PRESSAVG GPRESSAVG
ENERGY: 0 3.1463 13.0721 18.7357 0.0000 -10587.5038 1390.1798 0.0000 0.0000 1772.6961 -7389.6738 305.4481 -9162.3699 -7389.6738 305.4481 -193.1786 -110.0873 29561.1438 -193.1786 -110.0873
ENERGY: 300000 3.6423 12.0970 21.9617 0.0000 -10511.1085 1376.1241 0.0000 0.0000 1733.7923 -7363.4911 298.7447 -9097.2834 -7388.3725 303.0444 -146.5067 -204.8893 29800.6331 -193.2785 -135.3069
ENERGY: 600000 3.6665 7.7245 23.5559 0.0000 -10676.8160 1370.2859 0.0000 0.0000 1806.8291 -7464.7542 311.3295 -9271.5833 -7386.0874 303.4609 -260.5190 -191.3747 29266.1248 -233.2011 -183.9531
ENERGY: 900000 2.7302 14.2830 22.0995 0.0000 -10603.7154 1446.9767 0.0000 0.0000 1723.6808 -7393.9452 297.0024 -9117.6259 -7388.3116 300.3002 303.2940 365.1840 29978.1066 -194.7169 -139.6418
ENERGY: 1200000 4.8527 13.1253 22.1202 0.0000 -10674.1526 1440.0927 0.0000 0.0000 1755.8415 -7438.1201 302.5440 -9193.9616 -7397.4599 300.8869 -158.7685 -57.0177 30099.6649 -135.7965 -77.3048
ENERGY: 1500000 3.7850 7.9757 27.0048 0.0000 -10607.1385 1439.6358 0.0000 0.0000 1738.7907 -7389.9465 299.6060 -9128.7371 -7400.1280 300.3251 53.1719 101.3749 30040.0721 -88.9622 -29.6694
TCL: Running FEP window   9: Lambda1 0.39999999999999997 Lambda2 0.44999999999999996 [dLambda 0.04999999999999999]
TCL: Setting parameter firsttimestep to 0
TCL: Setting parameter alchLambda to 0.39999999999999997
Info: NONBONDED TABLE R-SQUARED SPACING: 0.0625
Info: NONBONDED TABLE SIZE: 705 POINTS
TCL: Setting parameter alchLambda2 to 0.44999999999999996
Info: NONBONDED TABLE R-SQUARED SPACING: 0.0625
Info: NONBONDED TABLE SIZE: 705 POINTS
TCL: Running for 1500000 steps
ETITLE: TS BOND ANGLE DIHED IMPRP ELECT VDW BOUNDARY MISC KINETIC TOTAL TEMP POTENTIAL TOTALAVG TEMPAVG PRESSURE GPRESSURE VOLUME PRESSAVG GPRESSAVG
ENERGY: 0 3.7850 7.9757 27.0048 0.0000 -10607.1375 1439.3119 0.0000 0.0000 1737.9112 -7391.1490 299.4544 -9129.0601 -7391.1490 299.4544 33.5629 108.0443 30040.0721 33.5629 108.0443
ENERGY: 300000 4.1087 14.6665 24.6806 0.0000 -10793.1663 1524.6331 0.0000 0.0000 1696.2718 -7528.8057 292.2797 -9225.0774 -7447.5643 297.1413 778.6940 803.7188 29544.5691 295.6847 360.1254
ENERGY: 600000 1.7707 8.0364 19.8343 0.0000 -10629.8040 1446.2152 0.0000 0.0000 1777.7888 -7376.1587 306.3256 -9153.9475 -7429.3405 300.2499 108.7698 143.2402 29977.4331 255.7598 321.3662
ENERGY: 900000 2.5886 13.0182 21.4076 0.0000 -10657.6828 1470.2520 0.0000 0.0000 1732.3906 -7418.0258 298.5032 -9150.4164 -7417.4094 299.6104 371.0550 357.7856 30240.5956 167.2277 228.8499
ENERGY: 1200000 4.0978 13.7794 22.0503 0.0000 -10425.4125 1313.9710 0.0000 0.0000 1788.3584 -7283.1555 308.1469 -9071.5139 -7411.7617 300.1181 -400.8489 -370.2676 29958.9354 30.1852 93.2886
ENERGY: 1500000 7.1850 12.7117 20.2680 0.0000 -10485.9905 1335.9943 0.0000 0.0000 1801.1674 -7308.6640 310.3539 -9109.8314 -7402.1435 300.8404 -877.0406 -859.9383 30270.6494 -26.9309 32.4429
TCL: Running FEP window  10: Lambda1 0.44999999999999996 Lambda2 0.49999999999999994 [dLambda 0.04999999999999999]
TCL: Setting parameter firsttimestep to 0
TCL: Setting parameter alchLambda to 0.44999999999999996
Info: NONBONDED TABLE R-SQUARED SPACING: 0.0625
Info: NONBONDED TABLE SIZE: 705 POINTS
TCL: Setting parameter alchLambda2 to 0.49999999999999994
Info: NONBONDED TABLE R-SQUARED SPACING: 0.0625
Info: NONBONDED TABLE SIZE: 705 POINTS
TCL: Running for 1500000 steps
ETITLE: TS BOND ANGLE DIHED IMPRP ELECT VDW BOUNDARY MISC KINETIC TOTAL TEMP POTENTIAL TOTALAVG TEMPAVG PRESSURE GPRESSURE VOLUME PRESSAVG GPRESSAVG
ENERGY: 0 7.1850 12.7117 20.2680 0.0000 -10485.9908 1336.7645 0.0000 0.0000 1800.3076 -7308.7540 310.2058 -9109.0616 -7308.7540 310.2058 -937.8239 -845.8512 30270.6494 -937.8239 -845.8512
ENERGY: 300000 3.3265 10.2342 18.9898 0.0000 -10633.2827 1437.8831 0.0000 0.0000 1755.6437 -7407.2054 302.5099 -9162.8491 -7401.0643 302.4630 -70.9579 -56.7128 30228.8245 -584.9795 -511.2891
ENERGY: 600000 3.1754 12.2609 20.9248 0.0000 -10677.0556 1430.9661 0.0000 0.0000 1797.7071 -7412.0213 309.7577 -9209.7284 -7423.7779 300.4835 21.3717 43.0031 30006.8172 -437.9430 -364.9124
ENERGY: 900000 2.8109 14.1829 21.0441 0.0000 -10581.4432 1440.4869 0.0000 0.0000 1692.6731 -7410.2452 291.6596 -9102.9183 -7423.0532 298.8436 144.4226 222.1450 30020.8039 -228.1213 -156.7885
ENERGY: 1200000 3.5406 12.1127 20.6682 0.0000 -10738.2165 1505.8505 0.0000 0.0000 1693.4425 -7502.6020 291.7922 -9196.0445 -7414.7463 298.3355 652.5096 687.7270 29689.5856 -113.0257 -38.8294
ENERGY: 1500000 1.7855 14.7137 21.7835 0.0000 -10572.9023 1390.0386 0.0000 0.0000 1771.5825 -7372.9984 305.2562 -9144.5809 -7413.2249 299.3519 -226.9557 -103.1865 29765.2273 -138.5562 -64.2622
TCL: Running FEP window  11: Lambda1 0.49999999999999994 Lambda2 0.5499999999999999 [dLambda 0.04999999999999999]
TCL: Setting parameter firsttimestep to 0
TCL: Setting parameter alchLambda to 0.49999999999999994
Info: NONBONDED TABLE R-SQUARED SPACING: 0.0625
Info: NONBONDED TABLE SIZE: 705 POINTS
TCL: Setting parameter alchLambda2 to 0.5499999999999999
Info: NONBONDED TABLE R-SQUARED SPACING: 0.0625
Info: NONBONDED TABLE SIZE: 705 POINTS
TCL: Running for 1500000 steps
ETITLE: TS BOND ANGLE DIHED IMPRP ELECT VDW BOUNDARY MISC KINETIC TOTAL TEMP POTENTIAL TOTALAVG TEMPAVG PRESSURE GPRESSURE VOLUME PRESSAVG GPRESSAVG
ENERGY: 0 1.7855 14.7137 21.7835 0.0000 -10572.9021 1390.1062 0.0000 0.0000 1770.7039 -7373.8093 305.1049 -9144.5132 -7373.8093 305.1049 -161.4175 -91.9114 29765.2273 -161.4175 -91.9114
ENERGY: 300000 1.9680 14.8923 19.3354 0.0000 -10500.2455 1305.9044 0.0000 0.0000 1703.5414 -7454.6040 293.5323 -9158.1454 -7372.6578 304.4186 -821.3840 -761.6262 29842.4121 -229.2655 -180.5744
ENERGY: 600000 1.5949 13.7102 19.2324 0.0000 -10445.1424 1408.3830 0.0000 0.0000 1724.4759 -7277.7460 297.1395 -9002.2219 -7371.2668 302.9225 94.9887 203.6352 30290.5121 -250.4232 -192.5391
ENERGY: 900000 3.0931 9.6663 23.7278 0.0000 -10529.2623 1429.5579 0.0000 0.0000 1718.8427 -7344.3745 296.1688 -9063.2172 -7377.2888 301.5135 131.3889 218.3202 30504.0091 -239.6454 -178.9959
ENERGY: 1200000 2.0601 10.2477 23.2783 0.0000 -10487.3194 1383.5442 0.0000 0.0000 1782.6702 -7285.5188 307.1667 -9068.1890 -7368.9896 302.0252 -137.3909 -103.2147 30086.9136 -220.4343 -163.4430
ENERGY: 1500000 2.2415 14.1544 21.0722 0.0000 -10514.1636 1387.9512 0.0000 0.0000 1764.8217 -7323.9225 304.0913 -9088.7442 -7372.2244 301.9145 -174.7488 -156.2901 30495.2435 -195.1985 -145.3310
TCL: Running FEP window  12: Lambda1 0.5499999999999999 Lambda2 0.6    [dLambda 0.050000000000000044]
TCL: Setting parameter firsttimestep to 0
TCL: Setting parameter alchLambda to 0.5499999999999999
Info: NONBONDED TABLE R-SQUARED SPACING: 0.0625
Info: NONBONDED TABLE SIZE: 705 POINTS
TCL: Setting parameter alchLambda2 to 0.6
Info: NONBONDED TABLE R-SQUARED SPACING: 0.0625
Info: NONBONDED TABLE SIZE: 705 POINTS
TCL: Running for 1500000 steps
ETITLE: TS BOND ANGLE DIHED IMPRP ELECT VDW BOUNDARY MISC KINETIC TOTAL TEMP POTENTIAL TOTALAVG TEMPAVG PRESSURE GPRESSURE VOLUME PRESSAVG GPRESSAVG
ENERGY: 0 2.2415 14.1544 21.0722 0.0000 -10514.1289 1387.7830 0.0000 0.0000 1763.9253 -7324.9523 303.9369 -9088.8777 -7324.9523 303.9369 -243.9030 -141.8705 30495.2435 -243.9030 -141.8705
ENERGY: 300000 2.3612 15.0709 23.7645 0.0000 -10587.2184 1404.0260 0.0000 0.0000 1759.1551 -7382.8406 303.1149 -9141.9957 -7378.4856 303.2485 -39.7280 -17.6963 30046.0041 270.7824 328.5586
ENERGY: 600000 4.1638 13.9625 26.3607 0.0000 -10473.1213 1288.4472 0.0000 0.0000 1764.0768 -7376.1103 303.9630 -9140.1871 -7393.2906 301.0377 -954.1029 -814.3837 29689.2433 -46.0119 24.7328
ENERGY: 900000 6.3756 10.2670 20.0921 0.0000 -10457.2463 1336.8517 0.0000 0.0000 1734.1500 -7349.5099 298.8064 -9083.6599 -7401.7224 300.5753 -517.5540 -396.0652 29997.8345 -45.5400 28.7937
ENERGY: 1200000 3.7656 17.0001 18.5937 0.0000 -10577.4593 1432.0894 0.0000 0.0000 1757.7435 -7348.2670 302.8717 -9106.0104 -7388.7231 301.6442 179.1598 214.7603 30084.7856 -19.3028 46.7110
ENERGY: 1500000 3.3893 11.2346 20.7985 0.0000 -10634.6566 1420.0023 0.0000 0.0000 1748.7212 -7430.5109 301.3171 -9179.2320 -7396.9492 301.7166 206.5547 320.1906 29881.2877 -77.7869 -11.6206
TCL: Running FEP window  13: Lambda1 0.6    Lambda2 0.65   [dLambda 0.050000000000000044]
TCL: Setting parameter firsttimestep to 0
TCL: Setting parameter alchLambda to 0.6
Info: NONBONDED TABLE R-SQUARED SPACING: 0.0625
Info: NONBONDED TABLE SIZE: 705 POINTS
TCL: Setting parameter alchLambda2 to 0.65
Info: NONBONDED TABLE R-SQUARED SPACING: 0.0625
Info: NONBONDED TABLE SIZE: 705 POINTS
TCL: Running for 1500000 steps
ETITLE: TS BOND ANGLE DIHED IMPRP ELECT VDW BOUNDARY MISC KINETIC TOTAL TEMP POTENTIAL TOTALAVG TEMPAVG PRESSURE GPRESSURE VOLUME PRESSAVG GPRESSAVG
ENERGY: 0 3.3893 11.2346 20.7985 0.0000 -10634.4183 1420.0633 0.0000 0.0000 1747.8555 -7431.0772 301.1679 -9178.9327 -7431.0772 301.1679 247.0103 330.3454 29881.2877 247.0103 330.3454
ENERGY: 300000 1.4116 12.7411 18.3495 0.0000 -10740.4233 1535.7137 0.0000 0.0000 1786.6619 -7385.5455 307.8545 -9172.2074 -7390.9328 301.2620 936.6140 965.3660 29825.8862 411.6824 472.1178
ENERGY: 600000 5.2291 9.7413 19.2110 0.0000 -10494.2802 1369.0999 0.0000 0.0000 1772.5152 -7318.4836 305.4170 -9090.9988 -7399.3528 301.1577 -213.3773 -172.0758 30118.3496 152.6795 213.2149
ENERGY: 900000 3.1019 13.6835 20.6859 0.0000 -10823.3002 1563.1280 0.0000 0.0000 1739.7713 -7482.9297 299.7749 -9222.7010 -7404.5750 300.8297 1253.5486 1283.9774 29404.1847 132.5411 195.3313
ENERGY: 1200000 4.2597 10.0678 21.4786 0.0000 -10569.9735 1357.0515 0.0000 0.0000 1704.6389 -7472.4770 293.7214 -9177.1159 -7415.2532 300.4764 -556.0606 -475.0086 29821.3954 -23.6248 43.6780
ENERGY: 1500000 4.0652 9.1343 22.6930 0.0000 -10705.5375 1503.2924 0.0000 0.0000 1767.7342 -7398.6184 304.5932 -9166.3526 -7418.8482 300.0494 393.2311 507.9035 30267.0663 33.5643 103.0418
TCL: Running FEP window  14: Lambda1 0.65   Lambda2 0.7000000000000001 [dLambda 0.050000000000000044]
TCL: Setting parameter firsttimestep to 0
TCL: Setting parameter alchLambda to 0.65
Info: NONBONDED TABLE R-SQUARED SPACING: 0.0625
Info: NONBONDED TABLE SIZE: 705 POINTS
TCL: Setting parameter alchLambda2 to 0.7000000000000001
Info: NONBONDED TABLE R-SQUARED SPACING: 0.0625
Info: NONBONDED TABLE SIZE: 705 POINTS
TCL: Running for 1500000 steps
ETITLE: TS BOND ANGLE DIHED IMPRP ELECT VDW BOUNDARY MISC KINETIC TOTAL TEMP POTENTIAL TOTALAVG TEMPAVG PRESSURE GPRESSURE VOLUME PRESSAVG GPRESSAVG
ENERGY: 0 4.0652 9.1343 22.6930 0.0000 -10706.0245 1503.9317 0.0000 0.0000 1766.8488 -7399.3515 304.4406 -9166.2003 -7399.3515 304.4406 461.2052 524.7607 30267.0663 461.2052 524.7607
ENERGY: 300000 2.3419 16.2356 19.4005 0.0000 -10595.8589 1408.3582 0.0000 0.0000 1713.5562 -7435.9667 295.2579 -9149.5228 -7403.3112 301.6708 -86.4940 24.6394 29696.8499 32.5169 111.9992
ENERGY: 600000 3.2806 20.2520 20.4473 0.0000 -10589.1873 1379.4985 0.0000 0.0000 1745.6851 -7420.0238 300.7939 -9165.7089 -7404.9128 299.9732 -273.4903 -184.1502 29980.2444 -51.3838 18.3047
ENERGY: 900000 1.0391 20.3783 21.7454 0.0000 -10425.4802 1333.5532 0.0000 0.0000 1772.4981 -7276.2662 305.4140 -9048.7642 -7384.7104 300.9871 -507.8378 -428.6464 30587.4877 -138.7969 -73.0713
ENERGY: 1200000 7.9740 11.3056 22.0495 0.0000 -10504.1219 1361.2096 0.0000 0.0000 1702.7774 -7398.8057 293.4006 -9101.5831 -7396.0403 299.1701 -357.1417 -295.8592 30549.5110 -84.7054 -14.3178
ENERGY: 1500000 2.1771 11.9663 20.9565 0.0000 -10523.9746 1320.6141 0.0000 0.0000 1742.9928 -7425.2678 300.3300 -9168.2606 -7390.5195 299.2883 -482.6796 -400.0909 29537.0271 -56.7618 18.6036
TCL: Running FEP window  15: Lambda1 0.7000000000000001 Lambda2 0.7500000000000001 [dLambda 0.050000000000000044]
TCL: Setting parameter firsttimestep to 0
TCL: Setting parameter alchLambda to 0.7000000000000001
Info: NONBONDED TABLE R-SQUARED SPACING: 0.0625
Info: NONBONDED TABLE SIZE: 705 POINTS
TCL: Setting parameter alchLambda2 to 0.7500000000000001
Info: NONBONDED TABLE R-SQUARED SPACING: 0.0625
Info: NONBONDED TABLE SIZE: 705 POINTS
TCL: Running for 1500000 steps
ETITLE: TS BOND ANGLE DIHED IMPRP ELECT VDW BOUNDARY MISC KINETIC TOTAL TEMP POTENTIAL TOTALAVG TEMPAVG PRESSURE GPRESSURE VOLUME PRESSAVG GPRESSAVG
ENERGY: 0 2.1771 11.9663 20.9565 0.0000 -10526.8277 1321.8491 0.0000 0.0000 1742.1539 -7427.7249 300.1855 -9169.8788 -7427.7249 300.1855 -464.0560 -383.5648 29537.0271 -464.0560 -383.5648
ENERGY: 300000 2.0370 12.4600 25.1795 0.0000 -10599.8433 1435.2919 0.0000 0.0000 1729.4408 -7395.4341 297.9949 -9124.8750 -7410.6360 300.6422 261.3077 323.6079 29841.5187 -46.3379 42.8776
ENERGY: 600000 1.4492 14.1497 19.3460 0.0000 -10673.6842 1448.4139 0.0000 0.0000 1745.6441 -7444.6812 300.7869 -9190.3253 -7400.1034 302.3673 430.8897 468.0542 29401.3013 -15.5064 54.2933
ENERGY: 900000 1.3857 11.1509 26.0130 0.0000 -10595.2896 1400.1366 0.0000 0.0000 1718.4990 -7438.1044 296.1096 -9156.6034 -7407.8551 301.5974 -37.3808 34.7697 29837.9403 -146.7921 -84.5645
ENERGY: 1200000 1.1468 14.4751 23.2403 0.0000 -10629.2525 1398.3513 0.0000 0.0000 1759.7400 -7432.2989 303.2157 -9192.0389 -7411.9276 300.8312 -144.6343 -35.2022 29765.3534 -74.6809 -3.5761
ENERGY: 1500000 2.8833 18.7469 24.1608 0.0000 -10574.0342 1323.6007 0.0000 0.0000 1724.7725 -7479.8699 297.1906 -9204.6424 -7416.9470 300.7983 -922.4021 -821.6532 30107.7494 -101.7438 -33.7461
TCL: Running FEP window  16: Lambda1 0.7500000000000001 Lambda2 0.8000000000000002 [dLambda 0.050000000000000044]
TCL: Setting parameter firsttimestep to 0
TCL: Setting parameter alchLambda to 0.7500000000000001
Info: NONBONDED TABLE R-SQUARED SPACING: 0.0625
Info: NONBONDED TABLE SIZE: 705 POINTS
TCL: Setting parameter alchLambda2 to 0.8000000000000002
Info: NONBONDED TABLE R-SQUARED SPACING: 0.0625
Info: NONBONDED TABLE SIZE: 705 POINTS
TCL: Running for 1500000 steps
ETITLE: TS BOND ANGLE DIHED IMPRP ELECT VDW BOUNDARY MISC KINETIC TOTAL TEMP POTENTIAL TOTALAVG TEMPAVG PRESSURE GPRESSURE VOLUME PRESSAVG GPRESSAVG
ENERGY: 0 2.8833 18.7469 24.1608 0.0000 -10576.5122 1324.6506 0.0000 0.0000 1723.9081 -7482.1625 297.0416 -9206.0706 -7482.1625 297.0416 -887.8208 -798.0128 30107.7494 -887.8208 -798.0128
ENERGY: 300000 2.2570 9.9917 22.7465 0.0000 -10612.0942 1425.8107 0.0000 0.0000 1747.7632 -7403.5251 301.1520 -9151.2883 -7442.1796 299.2360 270.4397 298.4869 29766.5157 -288.3998 -243.2319
ENERGY: 600000 3.6355 12.5393 22.3104 0.0000 -10600.2807 1360.6333 0.0000 0.0000 1734.7709 -7466.3913 298.9133 -9201.1623 -7456.0152 299.0170 -706.8183 -649.2412 30045.8015 -412.8500 -359.2405
ENERGY: 900000 4.6768 22.7591 19.9776 0.0000 -10559.8818 1388.6200 0.0000 0.0000 1780.3393 -7343.5090 306.7651 -9123.8483 -7431.9205 301.2212 -240.4341 -144.0738 30175.4205 -307.1463 -257.8873
ENERGY: 1200000 4.0583 13.3061 21.6307 0.0000 -10532.7992 1349.5922 0.0000 0.0000 1801.2755 -7342.9365 310.3726 -9144.2120 -7426.6862 302.1735 -410.5845 -348.8636 30431.9776 -239.0159 -183.7548
ENERGY: 1500000 3.8185 9.8580 22.9008 0.0000 -10712.3147 1476.0745 0.0000 0.0000 1759.7545 -7439.9084 303.2182 -9199.6629 -7418.2807 302.1965 370.1065 431.4602 30132.0707 -131.2221 -73.4295
TCL: Running FEP window  17: Lambda1 0.8000000000000002 Lambda2 0.8500000000000002 [dLambda 0.050000000000000044]
TCL: Setting parameter firsttimestep to 0
TCL: Setting parameter alchLambda to 0.8000000000000002
Info: NONBONDED TABLE R-SQUARED SPACING: 0.0625
Info: NONBONDED TABLE SIZE: 705 POINTS
TCL: Setting parameter alchLambda2 to 0.8500000000000002
Info: NONBONDED TABLE R-SQUARED SPACING: 0.0625
Info: NONBONDED TABLE SIZE: 705 POINTS
TCL: Running for 1500000 steps
ETITLE: TS BOND ANGLE DIHED IMPRP ELECT VDW BOUNDARY MISC KINETIC TOTAL TEMP POTENTIAL TOTALAVG TEMPAVG PRESSURE GPRESSURE VOLUME PRESSAVG GPRESSAVG
ENERGY: 0 3.8185 9.8580 22.9008 0.0000 -10714.2476 1475.7890 0.0000 0.0000 1758.9182 -7442.9630 303.0741 -9201.8812 -7442.9630 303.0741 369.9745 440.6978 30132.0707 369.9745 440.6978
ENERGY: 300000 2.5704 17.1959 22.2865 0.0000 -10609.4058 1365.2539 0.0000 0.0000 1818.4226 -7383.6766 313.3271 -9202.0992 -7406.8208 304.5291 -18.1857 26.8730 29498.2006 -16.6260 57.0177
ENERGY: 600000 2.6571 12.6353 18.8289 0.0000 -10614.9563 1444.6166 0.0000 0.0000 1699.0651 -7437.1533 292.7610 -9136.2184 -7426.6814 300.9735 326.6712 395.2374 30212.1879 127.9433 203.4042
ENERGY: 900000 2.3237 12.5082 20.0678 0.0000 -10485.8244 1340.9653 0.0000 0.0000 1704.5623 -7405.3971 293.7082 -9109.9594 -7452.4391 298.4063 -617.6434 -598.2719 30456.6803 -56.0402 12.8864
ENERGY: 1200000 3.3374 14.7957 18.9371 0.0000 -10790.9955 1528.9888 0.0000 0.0000 1721.1345 -7503.8020 296.5637 -9224.9365 -7453.3398 296.8438 899.1743 920.2680 29659.1725 21.1265 88.7482
ENERGY: 1500000 3.5737 13.5270 20.8983 0.0000 -10596.3505 1441.5044 0.0000 0.0000 1730.6081 -7386.2390 298.1961 -9116.8471 -7436.9029 297.6782 329.2028 422.2361 29999.3212 103.1879 175.2253
TCL: Running FEP window  18: Lambda1 0.8500000000000002 Lambda2 0.9000000000000002 [dLambda 0.050000000000000044]
TCL: Setting parameter firsttimestep to 0
TCL: Setting parameter alchLambda to 0.8500000000000002
Info: NONBONDED TABLE R-SQUARED SPACING: 0.0625
Info: NONBONDED TABLE SIZE: 705 POINTS
TCL: Setting parameter alchLambda2 to 0.9000000000000002
Info: NONBONDED TABLE R-SQUARED SPACING: 0.0625
Info: NONBONDED TABLE SIZE: 705 POINTS
TCL: Running for 1500000 steps
ETITLE: TS BOND ANGLE DIHED IMPRP ELECT VDW BOUNDARY MISC KINETIC TOTAL TEMP POTENTIAL TOTALAVG TEMPAVG PRESSURE GPRESSURE VOLUME PRESSAVG GPRESSAVG
ENERGY: 0 3.5737 13.5270 20.8983 0.0000 -10599.2646 1443.6206 0.0000 0.0000 1729.7316 -7387.9134 298.0450 -9117.6450 -7387.9134 298.0450 372.5675 456.9557 29999.3212 372.5675 456.9557
ENERGY: 300000 4.2839 17.6039 21.6323 0.0000 -10773.9329 1496.6473 0.0000 0.0000 1768.3524 -7465.4130 304.6997 -9233.7654 -7414.5147 301.0337 387.7842 518.2516 29987.5790 111.5387 208.0949
ENERGY: 600000 1.9739 12.2884 24.9251 0.0000 -10642.8627 1371.5155 0.0000 0.0000 1710.1213 -7522.0385 294.6660 -9232.1598 -7440.5894 299.7986 -768.2206 -712.2345 30210.5022 62.1311 145.1047
ENERGY: 900000 3.9509 16.7959 18.7819 0.0000 -10674.5918 1403.4948 0.0000 0.0000 1750.7783 -7480.7902 301.6715 -9231.5685 -7459.5794 298.1471 88.7414 148.1800 29567.8544 57.4833 130.7443
ENERGY: 1200000 3.5100 12.2617 20.6924 0.0000 -10667.1585 1457.9499 0.0000 0.0000 1732.8680 -7439.8766 298.5855 -9172.7446 -7462.0340 297.1360 327.7728 374.8103 29944.1557 -44.3703 20.0447
ENERGY: 1500000 4.1005 14.5903 21.6541 0.0000 -10765.3101 1447.8936 0.0000 0.0000 1790.0967 -7486.9749 308.4464 -9277.0716 -7461.1979 297.4544 -159.7084 -125.2597 30258.9325 -176.9527 -112.5328
TCL: Running FEP window  19: Lambda1 0.9000000000000002 Lambda2 0.9500000000000003 [dLambda 0.050000000000000044]
TCL: Setting parameter firsttimestep to 0
TCL: Setting parameter alchLambda to 0.9000000000000002
Info: NONBONDED TABLE R-SQUARED SPACING: 0.0625
Info: NONBONDED TABLE SIZE: 705 POINTS
TCL: Setting parameter alchLambda2 to 0.9500000000000003
Info: NONBONDED TABLE R-SQUARED SPACING: 0.0625
Info: NONBONDED TABLE SIZE: 705 POINTS
TCL: Running for 1500000 steps
ETITLE: TS BOND ANGLE DIHED IMPRP ELECT VDW BOUNDARY MISC KINETIC TOTAL TEMP POTENTIAL TOTALAVG TEMPAVG PRESSURE GPRESSURE VOLUME PRESSAVG GPRESSAVG
ENERGY: 0 4.1005 14.5902 21.6541 0.0000 -10768.0430 1449.4635 0.0000 0.0000 1789.2198 -7489.0148 308.2953 -9278.2346 -7489.0148 308.2953 -177.9155 -98.0172 30258.9325 -177.9155 -98.0172
ENERGY: 300000 3.7909 14.4220 20.9406 0.0000 -10628.1457 1431.2326 0.0000 0.0000 1728.2514 -7429.5082 297.7900 -9157.7597 -7436.2047 304.1518 1.0686 109.8966 30277.8710 -85.9241 -15.3442
ENERGY: 600000 2.5441 8.8900 26.9370 0.0000 -10593.8831 1367.6715 0.0000 0.0000 1739.0720 -7448.7684 299.6545 -9187.8405 -7427.3601 303.2690 -594.7042 -516.1934 30278.7256 -14.8252 54.8957
ENERGY: 900000 2.7041 11.9007 20.6227 0.0000 -10579.2399 1372.4903 0.0000 0.0000 1716.1194 -7455.4028 295.6996 -9171.5221 -7428.8597 302.6234 -344.0603 -315.8208 29931.0493 -60.9105 7.0325
ENERGY: 1200000 3.1288 13.8358 20.7321 0.0000 -10547.1204 1368.0669 0.0000 0.0000 1728.0666 -7413.2903 297.7581 -9141.3569 -7430.8769 301.5747 -507.3889 -417.1271 30143.2772 -85.5960 -18.6939
ENERGY: 1500000 3.7174 14.4141 20.2497 0.0000 -10418.7182 1299.0134 0.0000 0.0000 1711.2116 -7370.1120 294.8539 -9081.3236 -7433.6982 300.6958 -950.6767 -861.7301 30761.2346 -168.0220 -97.2365
TCL: Running FEP window  20: Lambda1 0.9500000000000003 Lambda2 1.0    [dLambda 0.04999999999999971]
TCL: Setting parameter firsttimestep to 0
TCL: Setting parameter alchLambda to 0.9500000000000003
Info: NONBONDED TABLE R-SQUARED SPACING: 0.0625
Info: NONBONDED TABLE SIZE: 705 POINTS
TCL: Setting parameter alchLambda2 to 1.0
Info: NONBONDED TABLE R-SQUARED SPACING: 0.0625
Info: NONBONDED TABLE SIZE: 705 POINTS
TCL: Running for 1500000 steps
ETITLE: TS BOND ANGLE DIHED IMPRP ELECT VDW BOUNDARY MISC KINETIC TOTAL TEMP POTENTIAL TOTALAVG TEMPAVG PRESSURE GPRESSURE VOLUME PRESSAVG GPRESSAVG
ENERGY: 0 3.7174 14.4141 20.2497 0.0000 -10422.2515 1300.8894 0.0000 0.0000 1710.3515 -7372.6293 294.7057 -9082.9808 -7372.6293 294.7057 -911.7581 -828.4662 30761.2346 -911.7581 -828.4662
ENERGY: 300000 5.4696 12.7410 21.8084 0.0000 -10590.3193 1403.5880 0.0000 0.0000 1711.3155 -7435.3967 294.8718 -9146.7123 -7425.1071 298.8219 -248.4490 -221.8083 30454.5028 -274.4912 -230.3205
ENERGY: 600000 2.8756 16.5712 20.1626 0.0000 -10678.4272 1468.8360 0.0000 0.0000 1745.4989 -7424.4829 300.7618 -9169.9818 -7425.2238 300.8577 390.7239 517.8125 30158.1332 -42.2375 19.4487
ENERGY: 900000 2.2969 12.4590 21.9303 0.0000 -10588.9759 1403.9854 0.0000 0.0000 1727.9662 -7420.3381 297.7408 -9148.3043 -7425.7941 300.3640 -11.5040 1.1288 29851.2535 43.6350 87.5375
ENERGY: 1200000 2.8630 13.6824 19.8442 0.0000 -10614.5214 1441.3282 0.0000 0.0000 1750.3971 -7386.4064 301.6058 -9136.8035 -7420.8198 300.5768 519.3207 600.0777 29853.8319 79.7779 122.7205
ENERGY: 1500000 7.4496 11.2410 19.0635 0.0000 -10690.8781 1485.2406 0.0000 0.0000 1725.9212 -7441.9623 297.3885 -9167.8834 -7420.3393 299.7150 376.7949 494.2796 30053.2254 84.3582 128.9943
TCL: Exiting due to exit command.
