Info: SIMULATION PARAMETERS:
Info: TIMESTEP               2
Info: NUMBER OF STEPS        0
Info: STEPS PER CYCLE        10
Info: PERIODIC CELL BASIS 1  30.6731 0 0
Info: PERIODIC CELL BASIS 2  0 31.9575 0
Info: PERIODIC CELL BASIS 3  0 0 31.3192
Info: PERIODIC CELL CENTER   0 0 0
Info: WRAPPING WATERS AROUND PERIODIC BOUNDARIES ON OUTPUT.
Info: WRAPPING ALL CLUSTERS AROUND PERIODIC BOUNDARIES ON OUTPUT.
Info: FIRST LDB TIMESTEP     50
Info: LAST LDB TIMESTEP     -1
Info: HOM BACKGROUND SCALING 1
Info: PME BACKGROUND SCALING 1
Info: MIN ATOMS PER PATCH    40
Info: EMPTY PATCH LOAD       40 ATOMS
Info: VELOCITY FILE          mobley_1352110_equil.vel
Info: CENTER OF MASS MOVING INITIALLY? NO
Info: DIELECTRIC             1
Info: EXCLUDE                SCALED ONE-FOUR
Info: 1-4 ELECTROSTATICS SCALED BY 0.833333
Info: MODIFIED 1-4 VDW PARAMETERS WILL BE USED
Info: DCD FILENAME           mobley_1352110_prod.dcd
Info: DCD FREQUENCY          100000
Info: DCD FIRST STEP         100000
Info: DCD FILE WILL CONTAIN UNIT CELL DATA
Info: XST FILENAME           mobley_1352110_prod.xst
Info: XST FREQUENCY          100000
Info: NO VELOCITY DCD OUTPUT
Info: NO FORCE DCD OUTPUT
Info: OUTPUT FILENAME        mobley_1352110_prod
Info: BINARY OUTPUT FILES WILL BE USED
Info: RESTART FILENAME       mobley_1352110_prod.restart
Info: RESTART FREQUENCY      100000
Info: BINARY RESTART FILES WILL BE USED
Info: CUTOFF                 9
Info: PAIRLIST DISTANCE      11
Info: PAIRLIST SHRINK RATE   0.01
Info: PAIRLIST GROW RATE     0.01
Info: PAIRLIST TRIGGER       0.3
Info: PAIRLISTS PER CYCLE    2
Info: PAIRLISTS ENABLED
Info: MARGIN                 2
Info: HYDROGEN GROUP CUTOFF  2.5
Info: PATCH DIMENSION        15.5
Info: ENERGY OUTPUT STEPS    100000
Info: ENERGY EVALUATION STEPS    100000
Info: OUTPUT ENERGY PRECISION 4
Info: CROSSTERM ENERGY INCLUDED IN DIHEDRAL
Info: TIMING OUTPUT STEPS    1000000
Info: PRESSURE OUTPUT STEPS  100000
Info: ALCHEMICAL FEP ON
Info: FEP CURRENT LAMBDA VALUE     1
Info: FEP COMPARISON LAMBDA VALUE  0.95
Info: FEP INTRA-ALCHEMICAL NON-BONDED INTERACTIONS WILL BE RETAINED
Info: FEP INTRA-ALCHEMICAL BONDED INTERACTIONS WILL BE RETAINED
Info: FEP VDW SHIFTING COEFFICIENT 5
Info: FEP ELEC. ACTIVE FOR ANNIHILATED PARTICLES BETWEEN LAMBDA = 0 AND LAMBDA = 0.5
Info: FEP ELEC. ACTIVE FOR EXNIHILATED PARTICLES BETWEEN LAMBDA = 0.5 AND LAMBDA = 1
Info: FEP VDW ACTIVE FOR ANNIHILATED PARTICLES BETWEEN LAMBDA = 0 AND LAMBDA = 1
Info: FEP VDW ACTIVE FOR EXNIHILATED PARTICLES BETWEEN LAMBDA = 0 AND LAMBDA = 1
Info: FEP BOND ACTIVE FOR ANNIHILATED PARTICLES BETWEEN LAMBDA = 1 AND LAMBDA = 1
Info: FEP BOND ACTIVE FOR EXNIHILATED PARTICLES BETWEEN LAMBDA = 0 AND LAMBDA = 0
Info: LANGEVIN DYNAMICS ACTIVE
Info: LANGEVIN TEMPERATURE   300
Info: LANGEVIN USING BBK INTEGRATOR
Info: LANGEVIN DAMPING COEFFICIENT IS 1 INVERSE PS
Info: LANGEVIN DYNAMICS APPLIED TO HYDROGENS
Info: LANGEVIN PISTON PRESSURE CONTROL ACTIVE
Info:        TARGET PRESSURE IS 1.01325 BAR
Info:     OSCILLATION PERIOD IS 50 FS
Info:             DECAY TIME IS 25 FS
Info:     PISTON TEMPERATURE IS 300 K
Info:       PRESSURE CONTROL IS GROUP-BASED
Info:    INITIAL STRAIN RATE IS -0.000284296 -0.000284296 -0.000284296
Info:       CELL FLUCTUATION IS ISOTROPIC
Info: PARTICLE MESH EWALD (PME) ACTIVE
Info: PME TOLERANCE               1e-06
Info: PME EWALD COEFFICIENT       0.348832
Info: PME INTERPOLATION ORDER     4
Info: PME GRID DIMENSIONS         32 32 32
Info: PME MAXIMUM GRID SPACING    1
Info: PME CALCULATION WILL BE PERFORMED ON GPU
Info: FULL ELECTROSTATIC EVALUATION FREQUENCY      2
Info: USING VERLET I (r-RESPA) MTS SCHEME.
Info: C1 SPLITTING OF LONG RANGE ELECTROSTATICS
Info: PLACING ATOMS IN PATCHES BY HYDROGEN GROUPS
Info: RIGID BONDS TO HYDROGEN : ALL
Info:         ERROR TOLERANCE : 1e-08
Info:          MAX ITERATIONS : 100
Info: RIGID WATER USING SETTLE ALGORITHM
Info: RANDOM NUMBER SEED     1744076353
Info: USE HYDROGEN BONDS?    NO
Info: Using AMBER format force field!
Info: AMBER PARM FILE        mobley_1352110.prmtop
Info: COORDINATE PDB         mobley_1352110.pdb
Info: Exclusions will be read from PARM file!
Info: SCNB (VDW SCALING)     2
Info: USING ARITHMETIC MEAN TO COMBINE L-J SIGMA PARAMETERS
Info: BINARY COORDINATES     mobley_1352110_equil.coor
Info: SUMMARY OF PARAMETERS:
Info: 10 BONDS
Info: 15 ANGLES
Info:   15 HARMONIC
Info:   0 COSINE-BASED
Info: 14 DIHEDRAL
Info: 0 IMPROPER
Info: 0 CROSSTERM
Info: 0 VDW
Info: 45 VDW_PAIRS
Info: 0 NBTHOLE_PAIRS
Info: To read alchdata from file: mobley_1352110.pdb
Info: To read alchflag data from column: 5
Info: STRUCTURE SUMMARY:
Info: 2947 ATOMS
Info: 2946 BONDS
Info: 61 ANGLES
Info: 85 DIHEDRALS
Info: 0 IMPROPERS
Info: 0 CROSSTERMS
Info: 3082 EXCLUSIONS
Info: 2934 RIGID BONDS
Info: ALCH: 0 ATOMS TO DISAPPEAR IN FINAL STATE
Info: ALCH: 34 ATOMS TO APPEAR IN FINAL STATE
Info: 5907 DEGREES OF FREEDOM
Info: 984 HYDROGEN GROUPS
Info: 4 ATOMS IN LARGEST HYDROGEN GROUP
Info: 984 MIGRATION GROUPS
Info: 4 ATOMS IN LARGEST MIGRATION GROUP
Info: TOTAL MASS = 17696.9 amu
Info: TOTAL CHARGE = 0.000200049 e
Info: MASS DENSITY = 0.957227 g/cm^3
Info: ATOM DENSITY = 0.095993 atoms/A^3
Info: ADDED 0 IMPLICIT EXCLUSIONS
Info: NONBONDED TABLE R-SQUARED SPACING: 0.0625
Info: NONBONDED TABLE SIZE: 705 POINTS
Info: REMOVING COM VELOCITY 0.0901833 0.142702 -0.159799
Info: Use 3D box decompostion in PME FFT.
Info: Updated CUDA force table with 4096 elements.
Info: Updated CUDA LJ table with 9 x 9 elements.
Info: Found 33 unique exclusion lists needing 140 bytes
TCL: Running for 1500000 steps
ETITLE: TS BOND ANGLE DIHED IMPRP ELECT VDW BOUNDARY MISC KINETIC TOTAL TEMP POTENTIAL TOTALAVG TEMPAVG PRESSURE GPRESSURE VOLUME PRESSAVG GPRESSAVG
ENERGY: 0 2.4446 20.5298 4.6954 0.0000 -10451.4182 1367.5993 0.0000 0.0000 1757.4778 -7298.6715 299.4424 -9056.1493 -7298.6715 299.4424 19.6873 93.3303 30700.1625 19.6873 93.3303
ENERGY: 300000 4.7518 22.7575 8.6105 0.0000 -10450.3313 1358.8502 0.0000 0.0000 1746.1207 -7309.2406 297.5073 -9055.3613 -7368.0748 301.7742 -323.2483 -238.5419 30788.5651 -463.1959 -402.3306
ENERGY: 600000 1.5645 17.5328 4.4152 0.0000 -10613.8705 1468.5270 0.0000 0.0000 1764.3535 -7357.4774 300.6139 -9121.8310 -7384.2616 301.4344 741.2160 768.9107 30464.1438 31.9469 90.2138
ENERGY: 900000 1.6521 17.8503 6.6700 0.0000 -10604.3298 1386.9805 0.0000 0.0000 1773.0363 -7418.1406 302.0933 -9191.1769 -7399.5109 300.0328 -213.0093 -151.0331 30580.0252 20.8614 80.0260
ENERGY: 1200000 4.3857 13.9994 3.8424 0.0000 -10671.8278 1417.8391 0.0000 0.0000 1801.8072 -7429.9540 306.9953 -9231.7611 -7398.6181 301.1108 -119.1265 -10.5372 30050.6940 -58.0875 1.5519
ENERGY: 1500000 5.3591 17.4675 4.6267 0.0000 -10748.2355 1509.1234 0.0000 0.0000 1730.6203 -7481.0385 294.8663 -9211.6588 -7418.5638 299.9981 679.4384 752.8564 30143.0507 -8.4623 49.3199
TCL: Running FEP window   2: Lambda1 0.95   Lambda2 0.8999999999999999 [dLambda -0.050000000000000044]
TCL: Setting parameter firsttimestep to 0
TCL: Setting parameter alchLambda to 0.95
Info: NONBONDED TABLE R-SQUARED SPACING: 0.0625
Info: NONBONDED TABLE SIZE: 705 POINTS
TCL: Setting parameter alchLambda2 to 0.8999999999999999
Info: NONBONDED TABLE R-SQUARED SPACING: 0.0625
Info: NONBONDED TABLE SIZE: 705 POINTS
TCL: Running for 1500000 steps
ETITLE: TS BOND ANGLE DIHED IMPRP ELECT VDW BOUNDARY MISC KINETIC TOTAL TEMP POTENTIAL TOTALAVG TEMPAVG PRESSURE GPRESSURE VOLUME PRESSAVG GPRESSAVG
ENERGY: 0 5.3591 17.4675 4.6267 0.0000 -10746.4796 1509.5822 0.0000 0.0000 1729.7438 -7479.7003 294.7170 -9209.4441 -7479.7003 294.7170 657.2499 742.0850 30143.0507 657.2499 742.0850
ENERGY: 300000 3.6174 15.7331 4.8080 0.0000 -10621.4413 1412.5567 0.0000 0.0000 1743.3412 -7441.3849 297.0338 -9184.7261 -7433.8243 296.7416 -61.3617 38.3894 30453.6514 198.8193 246.1105
ENERGY: 600000 3.8180 18.9745 4.7328 0.0000 -10540.4548 1403.3665 0.0000 0.0000 1769.8658 -7339.6972 301.5531 -9109.5630 -7396.7285 301.3133 100.2659 194.4764 30101.3367 200.7813 249.2514
ENERGY: 900000 4.4950 16.2228 4.5428 0.0000 -10467.0664 1340.7872 0.0000 0.0000 1735.8698 -7365.1488 295.7608 -9101.0186 -7389.1353 300.8333 -386.2514 -339.3978 30253.0881 308.7612 349.5956
ENERGY: 1200000 2.4982 14.3906 5.3476 0.0000 -10696.8087 1458.5280 0.0000 0.0000 1710.8616 -7505.1828 291.4998 -9216.0444 -7397.7052 300.5511 180.5272 244.1644 30172.6850 176.1955 215.6630
ENERGY: 1500000 2.9034 15.0731 4.3264 0.0000 -10661.8789 1419.1748 0.0000 0.0000 1740.2045 -7480.1966 296.4993 -9220.4011 -7409.1970 300.2224 -76.0841 -27.5981 30087.2700 172.3543 209.7479
TCL: Running FEP window   3: Lambda1 0.8999999999999999 Lambda2 0.8499999999999999 [dLambda -0.050000000000000044]
TCL: Setting parameter firsttimestep to 0
TCL: Setting parameter alchLambda to 0.8999999999999999
Info: NONBONDED TABLE R-SQUARED SPACING: 0.0625
Info: NONBONDED TABLE SIZE: 705 POINTS
TCL: Setting parameter alchLambda2 to 0.8499999999999999
Info: NONBONDED TABLE R-SQUARED SPACING: 0.0625
Info: NONBONDED TABLE SIZE: 705 POINTS
TCL: Running for 1500000 steps
ETITLE: TS BOND ANGLE DIHED IMPRP ELECT VDW BOUNDARY MISC KINETIC TOTAL TEMP POTENTIAL TOTALAVG TEMPAVG PRESSURE GPRESSURE VOLUME PRESSAVG GPRESSAVG
ENERGY: 0 2.9034 15.0731 4.3264 0.0000 -10659.9286 1418.6673 0.0000 0.0000 1739.3425 -7479.6159 296.3524 -9218.9583 -7479.6159 296.3524 -146.3543 -55.9624 30087.2700 -146.3543 -55.9624
ENERGY: 300000 1.7717 12.8826 3.0044 0.0000 -10481.9623 1402.8072 0.0000 0.0000 1780.3514 -7281.1450 303.3396 -9061.4965 -7423.2778 297.9752 403.8111 358.6899 30298.5585 -231.0838 -174.7008
ENERGY: 600000 8.2141 15.9222 3.8780 0.0000 -10663.3828 1434.1577 0.0000 0.0000 1786.0341 -7415.1769 304.3078 -9201.2109 -7441.7978 297.8548 -92.5471 -14.3716 30275.4065 -187.9488 -126.6083
ENERGY: 900000 5.0518 14.2325 7.3548 0.0000 -10608.5040 1431.1557 0.0000 0.0000 1681.4160 -7469.2933 286.4828 -9150.7092 -7431.0889 298.0684 -223.5748 -146.2930 30550.5550 -161.6716 -88.1064
ENERGY: 1200000 2.2338 18.6396 3.5932 0.0000 -10489.3935 1353.9815 0.0000 0.0000 1762.7016 -7348.2438 300.3324 -9110.9454 -7412.5140 298.7442 -392.0037 -334.5755 30778.5172 -164.8991 -100.8509
ENERGY: 1500000 3.0847 15.2228 6.2726 0.0000 -10520.5060 1320.9193 0.0000 0.0000 1739.5453 -7435.4613 296.3870 -9175.0067 -7419.4608 298.2468 -818.0031 -725.7476 30474.1177 -152.1607 -86.2218
TCL: Running FEP window   4: Lambda1 0.8499999999999999 Lambda2 0.7999999999999998 [dLambda -0.050000000000000044]
TCL: Setting parameter firsttimestep to 0
TCL: Setting parameter alchLambda to 0.8499999999999999
Info: NONBONDED TABLE R-SQUARED SPACING: 0.0625
Info: NONBONDED TABLE SIZE: 705 POINTS
TCL: Setting parameter alchLambda2 to 0.7999999999999998
Info: NONBONDED TABLE R-SQUARED SPACING: 0.0625
Info: NONBONDED TABLE SIZE: 705 POINTS
TCL: Running for 1500000 steps
ETITLE: TS BOND ANGLE DIHED IMPRP ELECT VDW BOUNDARY MISC KINETIC TOTAL TEMP POTENTIAL TOTALAVG TEMPAVG PRESSURE GPRESSURE VOLUME PRESSAVG GPRESSAVG
ENERGY: 0 3.0846 15.2228 6.2726 0.0000 -10518.1205 1320.4553 0.0000 0.0000 1738.6345 -7434.4507 296.2318 -9173.0852 -7434.4507 296.2318 -844.1030 -743.1388 30474.1177 -844.1030 -743.1388
ENERGY: 300000 2.0814 14.9322 7.1558 0.0000 -10614.8485 1393.2005 0.0000 0.0000 1789.5801 -7407.8985 304.9120 -9197.4786 -7378.9061 301.6088 -296.6667 -260.3281 30402.1206 -491.7735 -406.4681
ENERGY: 600000 4.9907 13.6275 7.8776 0.0000 -10579.5858 1355.8704 0.0000 0.0000 1763.6791 -7433.5405 300.4990 -9197.2196 -7376.4624 301.9452 -285.3420 -278.4969 30146.0856 -402.2803 -325.6094
ENERGY: 900000 8.7488 15.9618 7.8300 0.0000 -10601.1204 1355.5810 0.0000 0.0000 1741.4012 -7471.5976 296.7032 -9212.9988 -7390.3252 301.0790 -1058.4763 -962.2161 30691.5717 -389.3996 -319.0448
ENERGY: 1200000 4.2988 14.5501 8.8683 0.0000 -10544.4095 1370.0391 0.0000 0.0000 1747.6063 -7399.0470 297.7604 -9146.6532 -7392.3536 300.8840 -497.6149 -377.7242 30364.4085 -345.9504 -270.7127
ENERGY: 1500000 2.9420 22.4388 5.4416 0.0000 -10525.7966 1340.1264 0.0000 0.0000 1800.7644 -7354.0834 306.8176 -9154.8478 -7395.5191 300.6255 -539.4374 -426.8825 30336.1561 -303.2670 -224.6740
TCL: Running FEP window   5: Lambda1 0.7999999999999998 Lambda2 0.7499999999999998 [dLambda -0.050000000000000044]
TCL: Setting parameter firsttimestep to 0
TCL: Setting parameter alchLambda to 0.7999999999999998
Info: NONBONDED TABLE R-SQUARED SPACING: 0.0625
Info: NONBONDED TABLE SIZE: 705 POINTS
TCL: Setting parameter alchLambda2 to 0.7499999999999998
Info: NONBONDED TABLE R-SQUARED SPACING: 0.0625
Info: NONBONDED TABLE SIZE: 705 POINTS
TCL: Running for 1500000 steps
ETITLE: TS BOND ANGLE DIHED IMPRP ELECT VDW BOUNDARY MISC KINETIC TOTAL TEMP POTENTIAL TOTALAVG TEMPAVG PRESSURE GPRESSURE VOLUME PRESSAVG GPRESSAVG
ENERGY: 0 2.9420 22.4388 5.4416 0.0000 -10524.0672 1339.7640 0.0000 0.0000 1799.8916 -7353.5892 306.6689 -9153.4808 -7353.5892 306.6689 -528.2731 -446.7806 30336.1561 -528.2731 -446.7806
ENERGY: 300000 4.5141 15.1622 6.8979 0.0000 -10546.3354 1392.9308 0.0000 0.0000 1776.1544 -7350.6758 302.6245 -9126.8303 -7333.2212 306.6512 -110.2160 -83.2859 30523.7239 -134.9151 -58.8157
ENERGY: 600000 3.1107 13.5402 6.0088 0.0000 -10807.1459 1517.5325 0.0000 0.0000 1722.8951 -7544.0584 293.5501 -9266.9535 -7385.6599 303.5928 730.2217 751.2466 29725.0544 90.4582 162.1360
ENERGY: 900000 4.3298 18.9108 7.4700 0.0000 -10717.0986 1446.1082 0.0000 0.0000 1723.1529 -7517.1269 293.5940 -9240.2799 -7394.2339 302.0393 -169.3164 -175.1193 30615.0562 18.3764 75.5954
ENERGY: 1200000 3.1606 17.0111 5.5075 0.0000 -10741.4997 1456.1705 0.0000 0.0000 1773.8203 -7485.8296 302.2268 -9259.6500 -7399.4269 302.4551 414.1166 405.2851 29851.7997 132.0403 180.5569
ENERGY: 1500000 3.3711 14.5091 6.3318 0.0000 -10495.5281 1385.2612 0.0000 0.0000 1762.8453 -7323.2096 300.3569 -9086.0549 -7392.6374 302.0171 -420.4429 -333.1160 30718.2824 32.5662 91.8113
TCL: Running FEP window   6: Lambda1 0.7499999999999998 Lambda2 0.6999999999999997 [dLambda -0.050000000000000044]
TCL: Setting parameter firsttimestep to 0
TCL: Setting parameter alchLambda to 0.7499999999999998
Info: NONBONDED TABLE R-SQUARED SPACING: 0.0625
Info: NONBONDED TABLE SIZE: 705 POINTS
TCL: Setting parameter alchLambda2 to 0.6999999999999997
Info: NONBONDED TABLE R-SQUARED SPACING: 0.0625
Info: NONBONDED TABLE SIZE: 705 POINTS
TCL: Running for 1500000 steps
ETITLE: TS BOND ANGLE DIHED IMPRP ELECT VDW BOUNDARY MISC KINETIC TOTAL TEMP POTENTIAL TOTALAVG TEMPAVG PRESSURE GPRESSURE VOLUME PRESSAVG GPRESSAVG
ENERGY: 0 3.3711 14.5091 6.3318 0.0000 -10494.3220 1385.1662 0.0000 0.0000 1761.9585 -7322.9853 300.2058 -9084.9438 -7322.9853 300.2058 -438.0655 -346.1692 30718.2824 -438.0655 -346.1692
ENERGY: 300000 3.4374 16.0964 6.2185 0.0000 -10623.9726 1420.9861 0.0000 0.0000 1720.5844 -7456.6498 293.1564 -9177.2342 -7369.1388 299.0160 35.3747 123.6155 29900.1023 -155.6352 -59.1440
ENERGY: 600000 4.7198 12.5143 6.7981 0.0000 -10580.0247 1394.9843 0.0000 0.0000 1772.5986 -7388.4097 302.0187 -9161.0082 -7377.6450 298.9158 -223.0107 -101.2467 30215.0402 -78.4959 4.1980
ENERGY: 900000 3.2107 14.0829 3.1130 0.0000 -10667.1170 1480.8265 0.0000 0.0000 1823.1310 -7342.7529 310.6285 -9165.8838 -7386.5596 299.7985 654.9825 726.2354 29981.1305 85.1864 158.8774
ENERGY: 1200000 5.1177 10.2644 6.4072 0.0000 -10742.3354 1497.6474 0.0000 0.0000 1737.6369 -7485.2619 296.0618 -9222.8987 -7405.5544 299.6298 111.5212 213.1798 30487.0428 72.7704 150.4798
ENERGY: 1500000 4.0715 20.0143 7.0511 0.0000 -10576.1160 1381.9193 0.0000 0.0000 1750.5734 -7412.4864 298.2660 -9163.0598 -7406.3545 299.3527 -437.8882 -436.3720 30319.4761 28.2276 99.7938
TCL: Running FEP window   7: Lambda1 0.6999999999999997 Lambda2 0.6499999999999997 [dLambda -0.050000000000000044]
TCL: Setting parameter firsttimestep to 0
TCL: Setting parameter alchLambda to 0.6999999999999997
Info: NONBONDED TABLE R-SQUARED SPACING: 0.0625
Info: NONBONDED TABLE SIZE: 705 POINTS
TCL: Setting parameter alchLambda2 to 0.6499999999999997
Info: NONBONDED TABLE R-SQUARED SPACING: 0.0625
Info: NONBONDED TABLE SIZE: 705 POINTS
TCL: Running for 1500000 steps
ETITLE: TS BOND ANGLE DIHED IMPRP ELECT VDW BOUNDARY MISC KINETIC TOTAL TEMP POTENTIAL TOTALAVG TEMPAVG PRESSURE GPRESSURE VOLUME PRESSAVG GPRESSAVG
ENERGY: 0 4.0715 20.0143 7.0511 0.0000 -10574.2264 1381.3397 0.0000 0.0000 1749.6703 -7412.0796 298.1121 -9161.7500 -7412.0796 298.1121 -521.5141 -454.8030 30319.4761 -521.5141 -454.8030
ENERGY: 300000 2.3615 22.9709 7.1730 0.0000 -10610.2448 1419.4952 0.0000 0.0000 1738.0344 -7420.2098 296.1296 -9158.2442 -7404.2354 296.6354 91.8611 72.8934 30318.4064 -99.9932 -37.3199
ENERGY: 600000 5.8726 14.9417 8.2802 0.0000 -10646.2202 1483.1751 0.0000 0.0000 1790.4703 -7343.4804 305.0637 -9133.9507 -7395.3881 297.2909 785.3805 858.1991 29727.4456 -152.4089 -91.5883
ENERGY: 900000 5.7854 20.9463 3.9733 0.0000 -10672.1148 1431.9321 0.0000 0.0000 1782.6802 -7426.7976 303.7364 -9209.4777 -7387.2120 298.6984 -126.0241 -53.8532 30014.3379 -184.1956 -118.6218
ENERGY: 1200000 3.0653 14.0588 4.4325 0.0000 -10644.0865 1399.0328 0.0000 0.0000 1765.1758 -7458.3214 300.7540 -9223.4972 -7388.1385 299.4516 -83.7052 -116.7602 29940.5843 -255.0133 -201.0357
ENERGY: 1500000 2.2982 17.2583 4.5292 0.0000 -10641.1265 1412.8858 0.0000 0.0000 1763.2558 -7440.8991 300.4268 -9204.1549 -7402.0372 299.0597 -289.4400 -224.9129 30345.4564 -209.8511 -156.1362
TCL: Running FEP window   8: Lambda1 0.6499999999999997 Lambda2 0.5999999999999996 [dLambda -0.050000000000000044]
TCL: Setting parameter firsttimestep to 0
TCL: Setting parameter alchLambda to 0.6499999999999997
Info: NONBONDED TABLE R-SQUARED SPACING: 0.0625
Info: NONBONDED TABLE SIZE: 705 POINTS
TCL: Setting parameter alchLambda2 to 0.5999999999999996
Info: NONBONDED TABLE R-SQUARED SPACING: 0.0625
Info: NONBONDED TABLE SIZE: 705 POINTS
TCL: Running for 1500000 steps
ETITLE: TS BOND ANGLE DIHED IMPRP ELECT VDW BOUNDARY MISC KINETIC TOTAL TEMP POTENTIAL TOTALAVG TEMPAVG PRESSURE GPRESSURE VOLUME PRESSAVG GPRESSAVG
ENERGY: 0 2.2982 17.2583 4.5292 0.0000 -10639.7439 1412.7025 0.0000 0.0000 1762.3819 -7440.5737 300.2780 -9202.9557 -7440.5737 300.2780 -299.0036 -238.4874 30345.4564 -299.0036 -238.4874
ENERGY: 300000 5.2018 13.5722 3.5960 0.0000 -10477.3980 1324.7315 0.0000 0.0000 1744.2037 -7386.0928 297.1807 -9130.2965 -7414.3409 297.0594 -776.1994 -696.6242 30489.2139 -334.1885 -254.2132
ENERGY: 600000 5.6678 18.3465 4.9925 0.0000 -10565.1928 1352.2923 0.0000 0.0000 1744.5608 -7439.3328 297.2416 -9183.8937 -7417.4191 300.6231 -632.5520 -598.8438 30356.2807 -225.8841 -157.3110
ENERGY: 900000 6.2657 14.8400 4.6552 0.0000 -10625.0405 1459.6250 0.0000 0.0000 1832.4609 -7307.1936 312.2181 -9139.6545 -7412.7689 301.4340 472.4702 465.6340 30266.1615 -132.9203 -79.5829
ENERGY: 1200000 3.6033 17.7169 6.6731 0.0000 -10671.3288 1471.5447 0.0000 0.0000 1787.7339 -7384.0568 304.5975 -9171.7907 -7397.5471 302.7964 411.8729 440.5521 30260.7428 -23.1166 25.9571
ENERGY: 1500000 5.7840 19.3007 3.7530 0.0000 -10729.1482 1497.6697 0.0000 0.0000 1784.2575 -7418.3833 304.0051 -9202.6408 -7397.0088 303.1058 368.6120 412.5183 30354.3445 34.0834 79.7769
TCL: Running FEP window   9: Lambda1 0.5999999999999996 Lambda2 0.5499999999999996 [dLambda -0.050000000000000044]
TCL: Setting parameter firsttimestep to 0
TCL: Setting parameter alchLambda to 0.5999999999999996
Info: NONBONDED TABLE R-SQUARED SPACING: 0.0625
Info: NONBONDED TABLE SIZE: 705 POINTS
TCL: Setting parameter alchLambda2 to 0.5499999999999996
Info: NONBONDED TABLE R-SQUARED SPACING: 0.0625
Info: NONBONDED TABLE SIZE: 705 POINTS
TCL: Running for 1500000 steps
ETITLE: TS BOND ANGLE DIHED IMPRP ELECT VDW BOUNDARY MISC KINETIC TOTAL TEMP POTENTIAL TOTALAVG TEMPAVG PRESSURE GPRESSURE VOLUME PRESSAVG GPRESSAVG
ENERGY: 0 5.7840 19.3007 3.7530 0.0000 -10728.3340 1498.2242 0.0000 0.0000 1783.3195 -7417.9525 303.8453 -9201.2720 -7417.9525 303.8453 331.0702 407.8990 30354.3445 331.0702 407.8990
ENERGY: 300000 6.6098 20.5966 7.9181 0.0000 -10672.7861 1444.9610 0.0000 0.0000 1753.6589 -7439.0416 298.7917 -9192.7005 -7424.0021 299.9681 -202.3206 -77.4238 30354.9220 -78.0032 -44.0298
ENERGY: 600000 3.5683 15.6627 6.1167 0.0000 -10745.7446 1508.8156 0.0000 0.0000 1815.7493 -7395.8321 309.3708 -9211.5814 -7411.5430 301.2705 718.7723 880.6158 29992.1642 88.6853 147.1746
ENERGY: 900000 4.6774 13.7384 5.9433 0.0000 -10565.1882 1409.4125 0.0000 0.0000 1778.0290 -7353.3876 302.9439 -9131.4166 -7408.8891 300.4844 55.6767 88.7791 30457.7723 122.2240 180.7506
ENERGY: 1200000 5.1624 15.4991 7.3556 0.0000 -10453.5330 1307.3616 0.0000 0.0000 1811.3637 -7306.7907 308.6236 -9118.1544 -7388.8594 301.8029 -757.5443 -691.3554 30234.0113 49.7639 112.7835
ENERGY: 1500000 5.7666 14.2111 4.9418 0.0000 -10637.3074 1422.6374 0.0000 0.0000 1761.7968 -7427.9537 300.1783 -9189.7505 -7403.2527 300.6035 -103.7721 -120.1012 30499.7287 10.9699 67.8010
TCL: Running FEP window  10: Lambda1 0.5499999999999996 Lambda2 0.4999999999999996 [dLambda -0.04999999999999999]
TCL: Setting parameter firsttimestep to 0
TCL: Setting parameter alchLambda to 0.5499999999999996
Info: NONBONDED TABLE R-SQUARED SPACING: 0.0625
Info: NONBONDED TABLE SIZE: 705 POINTS
TCL: Setting parameter alchLambda2 to 0.4999999999999996
Info: NONBONDED TABLE R-SQUARED SPACING: 0.0625
Info: NONBONDED TABLE SIZE: 705 POINTS
TCL: Running for 1500000 steps
ETITLE: TS BOND ANGLE DIHED IMPRP ELECT VDW BOUNDARY MISC KINETIC TOTAL TEMP POTENTIAL TOTALAVG TEMPAVG PRESSURE GPRESSURE VOLUME PRESSAVG GPRESSAVG
ENERGY: 0 5.7666 14.2111 4.9418 0.0000 -10636.8159 1423.5064 0.0000 0.0000 1760.9675 -7427.4225 300.0370 -9188.3901 -7427.4225 300.0370 -202.3762 -124.9804 30499.7287 -202.3762 -124.9804
ENERGY: 300000 1.4441 16.4778 5.6565 0.0000 -10546.6974 1404.7999 0.0000 0.0000 1780.9378 -7337.3813 303.4395 -9118.3191 -7400.1166 300.4596 40.7009 41.9792 30553.7971 -25.4750 24.5023
ENERGY: 600000 7.0689 13.4353 3.7720 0.0000 -10571.5944 1428.7177 0.0000 0.0000 1737.9650 -7380.6354 296.1178 -9118.6005 -7392.1215 300.2166 276.2029 338.7003 30190.9918 -123.9117 -62.9933
ENERGY: 900000 4.1009 13.4900 3.5143 0.0000 -10589.9495 1453.9564 0.0000 0.0000 1759.0761 -7355.8119 299.7147 -9114.8880 -7381.4236 300.0075 393.6458 473.5451 29902.9434 -31.6154 44.4826
ENERGY: 1200000 2.6616 17.4981 4.7662 0.0000 -10653.5145 1419.6538 0.0000 0.0000 1745.9362 -7462.9986 297.4759 -9208.9348 -7381.5137 299.7516 83.3630 29.2425 30181.5820 -16.6547 42.6238
ENERGY: 1500000 1.2059 14.0783 3.9076 0.0000 -10688.3803 1474.6862 0.0000 0.0000 1796.6609 -7397.8413 306.1185 -9194.5022 -7382.0846 299.9038 296.4875 379.4076 30527.3538 55.7245 117.1749
TCL: Running FEP window  11: Lambda1 0.4999999999999996 Lambda2 0.4499999999999996 [dLambda -0.04999999999999999]
TCL: Setting parameter firsttimestep to 0
TCL: Setting parameter alchLambda to 0.4999999999999996
Info: NONBONDED TABLE R-SQUARED SPACING: 0.0625
Info: NONBONDED TABLE SIZE: 705 POINTS
TCL: Setting parameter alchLambda2 to 0.4499999999999996
Info: NONBONDED TABLE R-SQUARED SPACING: 0.0625
Info: NONBONDED TABLE SIZE: 705 POINTS
TCL: Running for 1500000 steps
ETITLE: TS BOND ANGLE DIHED IMPRP ELECT VDW BOUNDARY MISC KINETIC TOTAL TEMP POTENTIAL TOTALAVG TEMPAVG PRESSURE GPRESSURE VOLUME PRESSAVG GPRESSAVG
ENERGY: 0 1.2059 14.0783 3.9076 0.0000 -10688.5521 1474.8619 0.0000 0.0000 1795.7749 -7398.7234 305.9675 -9194.4983 -7398.7234 305.9675 280.7205 365.3711 30527.3538 280.7205 365.3711
ENERGY: 300000 3.1953 19.7229 5.8709 0.0000 -10591.2946 1376.0263 0.0000 0.0000 1798.2576 -7388.2215 306.3905 -9186.4792 -7398.6944 302.5227 -356.9778 -300.3941 30344.5109 88.4256 165.1174
ENERGY: 600000 1.8340 12.6138 6.5903 0.0000 -10603.0183 1384.3485 0.0000 0.0000 1781.0035 -7416.6281 303.4507 -9197.6317 -7411.2292 303.2328 -252.2219 -187.4563 30242.6219 213.7945 274.4379
ENERGY: 900000 5.2262 18.5283 4.4330 0.0000 -10736.8455 1484.5678 0.0000 0.0000 1784.8345 -7439.2557 304.1035 -9224.0902 -7420.0439 301.9540 605.6061 636.6265 29798.7708 163.9647 212.8895
ENERGY: 1200000 5.6341 17.3047 4.5236 0.0000 -10535.2288 1332.5717 0.0000 0.0000 1750.6780 -7424.5166 298.2838 -9175.1947 -7422.2525 300.8775 -761.4808 -654.4367 30172.5573 165.9620 218.7351
ENERGY: 1500000 6.4190 13.4942 4.3296 0.0000 -10529.9519 1420.0813 0.0000 0.0000 1760.0502 -7325.5776 299.8807 -9085.6279 -7415.1074 301.2211 300.3902 392.9164 30192.3208 157.3473 221.2669
TCL: Running FEP window  12: Lambda1 0.4499999999999996 Lambda2 0.39999999999999963 [dLambda -0.04999999999999999]
TCL: Setting parameter firsttimestep to 0
TCL: Setting parameter alchLambda to 0.4499999999999996
Info: NONBONDED TABLE R-SQUARED SPACING: 0.0625
Info: NONBONDED TABLE SIZE: 705 POINTS
TCL: Setting parameter alchLambda2 to 0.39999999999999963
Info: NONBONDED TABLE R-SQUARED SPACING: 0.0625
Info: NONBONDED TABLE SIZE: 705 POINTS
TCL: Running for 1500000 steps
ETITLE: TS BOND ANGLE DIHED IMPRP ELECT VDW BOUNDARY MISC KINETIC TOTAL TEMP POTENTIAL TOTALAVG TEMPAVG PRESSURE GPRESSURE VOLUME PRESSAVG GPRESSAVG
ENERGY: 0 6.4190 13.4942 4.3296 0.0000 -10529.9501 1420.7019 0.0000 0.0000 1759.1805 -7325.8249 299.7325 -9085.0054 -7325.8249 299.7325 299.9462 385.3184 30192.3208 299.9462 385.3184
ENERGY: 300000 2.6075 19.7427 3.4547 0.0000 -10693.2674 1473.1120 0.0000 0.0000 1732.5888 -7461.7617 295.2017 -9194.3505 -7416.9643 296.2364 538.3270 527.6026 30015.6980 62.5087 100.5706
ENERGY: 600000 3.8748 15.5439 6.4339 0.0000 -10684.1165 1483.1235 0.0000 0.0000 1773.0122 -7402.1283 302.0892 -9175.1404 -7410.2701 300.0733 544.2960 622.2097 29842.0602 -44.5178 5.1807
ENERGY: 900000 1.5931 12.8064 8.8163 0.0000 -10506.9062 1378.3670 0.0000 0.0000 1811.3605 -7293.9628 308.6230 -9105.3234 -7407.0719 300.5005 -177.3450 -46.8063 30502.9032 -96.4189 -34.1320
ENERGY: 1200000 2.7279 14.9899 6.6996 0.0000 -10564.2714 1391.0891 0.0000 0.0000 1769.4557 -7379.3092 301.4832 -9148.7649 -7402.4513 300.4709 -141.4718 -14.3888 30086.1138 -61.4832 -0.5294
ENERGY: 1500000 8.5388 16.3593 6.3021 0.0000 -10496.4300 1352.5009 0.0000 0.0000 1790.6248 -7322.1041 305.0900 -9112.7289 -7396.6875 300.6403 -533.9657 -495.3536 30311.3032 -81.8502 -20.7799
TCL: Running FEP window  13: Lambda1 0.39999999999999963 Lambda2 0.34999999999999964 [dLambda -0.04999999999999999]
TCL: Setting parameter firsttimestep to 0
TCL: Setting parameter alchLambda to 0.39999999999999963
Info: NONBONDED TABLE R-SQUARED SPACING: 0.0625
Info: NONBONDED TABLE SIZE: 705 POINTS
TCL: Setting parameter alchLambda2 to 0.34999999999999964
Info: NONBONDED TABLE R-SQUARED SPACING: 0.0625
Info: NONBONDED TABLE SIZE: 705 POINTS
TCL: Running for 1500000 steps
ETITLE: TS BOND ANGLE DIHED IMPRP ELECT VDW BOUNDARY MISC KINETIC TOTAL TEMP POTENTIAL TOTALAVG TEMPAVG PRESSURE GPRESSURE VOLUME PRESSAVG GPRESSAVG
ENERGY: 0 8.5388 16.3593 6.3021 0.0000 -10496.4292 1352.4430 0.0000 0.0000 1789.7276 -7323.0584 304.9372 -9112.7860 -7323.0584 304.9372 -587.1960 -505.0540 30311.3032 -587.1960 -505.0540
ENERGY: 300000 1.4992 18.9531 3.8700 0.0000 -10492.1803 1359.4634 0.0000 0.0000 1761.2028 -7347.1918 300.0770 -9108.3946 -7356.9298 301.1270 -408.2882 -383.9862 30652.8501 -326.6708 -267.1102
ENERGY: 600000 6.1779 14.5038 4.2924 0.0000 -10633.3233 1421.3966 0.0000 0.0000 1761.9397 -7425.0130 300.2026 -9186.9527 -7391.5396 298.0426 294.9444 304.2460 29881.2609 -251.3368 -193.1535
ENERGY: 900000 2.4647 18.5420 5.3665 0.0000 -10506.6396 1360.9300 0.0000 0.0000 1749.6089 -7369.7276 298.1017 -9119.3365 -7391.8889 298.6804 -332.2737 -318.2372 30307.2105 -211.1586 -162.0357
ENERGY: 1200000 3.7352 12.3333 7.0318 0.0000 -10610.0764 1414.9231 0.0000 0.0000 1748.5929 -7423.4600 297.9285 -9172.0529 -7386.7822 299.6587 -162.7479 -91.1567 30134.8563 -132.0809 -88.4835
ENERGY: 1500000 6.1400 16.9725 6.0834 0.0000 -10558.5971 1368.8719 0.0000 0.0000 1807.8849 -7352.6444 308.0308 -9160.5293 -7395.2605 299.9349 -181.3227 -162.1386 29876.8398 -54.2358 -13.3713
TCL: Running FEP window  14: Lambda1 0.34999999999999964 Lambda2 0.29999999999999966 [dLambda -0.04999999999999999]
TCL: Setting parameter firsttimestep to 0
TCL: Setting parameter alchLambda to 0.34999999999999964
Info: NONBONDED TABLE R-SQUARED SPACING: 0.0625
Info: NONBONDED TABLE SIZE: 705 POINTS
TCL: Setting parameter alchLambda2 to 0.29999999999999966
Info: NONBONDED TABLE R-SQUARED SPACING: 0.0625
Info: NONBONDED TABLE SIZE: 705 POINTS
TCL: Running for 1500000 steps
ETITLE: TS BOND ANGLE DIHED IMPRP ELECT VDW BOUNDARY MISC KINETIC TOTAL TEMP POTENTIAL TOTALAVG TEMPAVG PRESSURE GPRESSURE VOLUME PRESSAVG GPRESSAVG
ENERGY: 0 6.1400 16.9725 6.0834 0.0000 -10558.5984 1368.7356 0.0000 0.0000 1806.9777 -7353.6892 307.8763 -9160.6668 -7353.6892 307.8763 -262.8392 -173.1023 29876.8398 -262.8392 -173.1023
ENERGY: 300000 3.0433 14.2917 5.3367 0.0000 -10561.8926 1436.6713 0.0000 0.0000 1739.7225 -7362.8272 296.4172 -9102.5497 -7397.9007 299.7507 593.4657 600.5390 29805.6015 -264.5009 -205.8688
ENERGY: 600000 6.3128 11.4433 4.9609 0.0000 -10532.2140 1385.5981 0.0000 0.0000 1751.3434 -7372.5555 298.3972 -9123.8989 -7399.2427 300.1253 -343.5290 -279.3785 30123.3825 -143.4989 -97.5933
ENERGY: 900000 2.4954 13.7772 5.7399 0.0000 -10746.8601 1486.4200 0.0000 0.0000 1772.8732 -7465.5544 302.0655 -9238.4275 -7398.6329 301.4629 542.1650 518.8358 29819.0654 -39.9088 10.1298
ENERGY: 1200000 3.3553 16.1429 6.7076 0.0000 -10685.9919 1451.2241 0.0000 0.0000 1801.3634 -7407.1985 306.9197 -9208.5619 -7403.3129 301.1403 244.7869 244.8200 30143.2792 -123.8257 -71.8452
ENERGY: 1500000 4.7708 12.9070 4.5901 0.0000 -10618.7161 1435.4891 0.0000 0.0000 1809.2173 -7351.7419 308.2579 -9160.9592 -7398.5155 301.1224 188.0673 264.5618 30220.2225 -159.3231 -104.8204
TCL: Running FEP window  15: Lambda1 0.29999999999999966 Lambda2 0.24999999999999967 [dLambda -0.04999999999999999]
TCL: Setting parameter firsttimestep to 0
TCL: Setting parameter alchLambda to 0.29999999999999966
Info: NONBONDED TABLE R-SQUARED SPACING: 0.0625
Info: NONBONDED TABLE SIZE: 705 POINTS
TCL: Setting parameter alchLambda2 to 0.24999999999999967
Info: NONBONDED TABLE R-SQUARED SPACING: 0.0625
Info: NONBONDED TABLE SIZE: 705 POINTS
TCL: Running for 1500000 steps
ETITLE: TS BOND ANGLE DIHED IMPRP ELECT VDW BOUNDARY MISC KINETIC TOTAL TEMP POTENTIAL TOTALAVG TEMPAVG PRESSURE GPRESSURE VOLUME PRESSAVG GPRESSAVG
ENERGY: 0 4.7708 12.9070 4.5901 0.0000 -10618.7166 1435.5732 0.0000 0.0000 1808.3466 -7352.5289 308.1095 -9160.8756 -7352.5289 308.1095 190.8459 260.6417 30220.2225 190.8459 260.6417
ENERGY: 300000 1.4030 21.0384 3.6115 0.0000 -10598.0917 1430.1290 0.0000 0.0000 1782.0576 -7359.8522 303.6303 -9141.9098 -7385.0864 303.6531 538.6108 566.2728 29539.3435 -42.7590 -10.3252
ENERGY: 600000 2.3135 15.1048 5.2143 0.0000 -10664.8532 1422.5225 0.0000 0.0000 1758.5168 -7461.1814 299.6194 -9219.6982 -7407.7325 301.4319 -130.2438 -37.5231 29930.0082 -7.0176 41.8658
ENERGY: 900000 2.9596 17.4993 5.6612 0.0000 -10653.8606 1451.4420 0.0000 0.0000 1732.5940 -7443.7045 295.2026 -9176.2985 -7412.7862 300.8446 251.5500 262.2946 30017.6822 -49.2857 0.8398
ENERGY: 1200000 4.0021 15.3774 9.4888 0.0000 -10603.4144 1444.4009 0.0000 0.0000 1716.5545 -7413.5907 292.4698 -9130.1452 -7404.0882 299.4244 299.9148 423.9109 30093.0018 99.0945 162.4814
ENERGY: 1500000 2.6597 17.5605 9.3632 0.0000 -10577.2065 1453.6746 0.0000 0.0000 1725.8802 -7368.0682 294.0587 -9093.9484 -7396.0472 300.0891 493.6989 590.1804 30005.0489 79.1126 145.2906
TCL: Running FEP window  16: Lambda1 0.24999999999999967 Lambda2 0.19999999999999968 [dLambda -0.04999999999999999]
TCL: Setting parameter firsttimestep to 0
TCL: Setting parameter alchLambda to 0.24999999999999967
Info: NONBONDED TABLE R-SQUARED SPACING: 0.0625
Info: NONBONDED TABLE SIZE: 705 POINTS
TCL: Setting parameter alchLambda2 to 0.19999999999999968
Info: NONBONDED TABLE R-SQUARED SPACING: 0.0625
Info: NONBONDED TABLE SIZE: 705 POINTS
TCL: Running for 1500000 steps
ETITLE: TS BOND ANGLE DIHED IMPRP ELECT VDW BOUNDARY MISC KINETIC TOTAL TEMP POTENTIAL TOTALAVG TEMPAVG PRESSURE GPRESSURE VOLUME PRESSAVG GPRESSAVG
ENERGY: 0 2.6597 17.5605 9.3632 0.0000 -10577.2077 1453.6159 0.0000 0.0000 1725.0314 -7368.9770 293.9141 -9094.0084 -7368.9770 293.9141 487.8678 577.3933 30005.0489 487.8678 577.3933
ENERGY: 300000 2.8143 16.6436 6.7355 0.0000 -10533.7858 1324.0027 0.0000 0.0000 1741.5465 -7442.0431 296.7280 -9183.5897 -7391.8385 296.7339 -1086.3305 -1004.4153 30685.5397 -76.5493 -18.9102
ENERGY: 600000 5.2083 14.3489 4.1803 0.0000 -10704.5832 1486.9365 0.0000 0.0000 1816.7671 -7377.1422 309.5442 -9193.9093 -7381.1160 302.2316 436.6297 554.9094 29652.8058 230.0196 304.7240
ENERGY: 900000 6.9367 18.8222 4.5519 0.0000 -10697.9636 1464.9704 0.0000 0.0000 1823.8988 -7378.7835 310.7593 -9202.6823 -7385.9325 302.4999 324.0231 385.3885 29730.6512 187.8756 249.6026
ENERGY: 1200000 5.4973 17.6189 3.7398 0.0000 -10555.5721 1384.8460 0.0000 0.0000 1779.0733 -7364.7968 303.1219 -9143.8701 -7387.9145 302.3575 -469.4701 -387.5304 30233.0657 55.4234 115.4362
ENERGY: 1500000 4.5839 15.2388 8.3526 0.0000 -10647.0128 1423.3329 0.0000 0.0000 1734.2347 -7461.2699 295.4822 -9195.5045 -7385.5206 302.6848 -67.4346 30.0119 29754.3000 118.1755 176.2902
TCL: Running FEP window  17: Lambda1 0.19999999999999968 Lambda2 0.1499999999999997 [dLambda -0.04999999999999999]
TCL: Setting parameter firsttimestep to 0
TCL: Setting parameter alchLambda to 0.19999999999999968
Info: NONBONDED TABLE R-SQUARED SPACING: 0.0625
Info: NONBONDED TABLE SIZE: 705 POINTS
TCL: Setting parameter alchLambda2 to 0.1499999999999997
Info: NONBONDED TABLE R-SQUARED SPACING: 0.0625
Info: NONBONDED TABLE SIZE: 705 POINTS
TCL: Running for 1500000 steps
ETITLE: TS BOND ANGLE DIHED IMPRP ELECT VDW BOUNDARY MISC KINETIC TOTAL TEMP POTENTIAL TOTALAVG TEMPAVG PRESSURE GPRESSURE VOLUME PRESSAVG GPRESSAVG
ENERGY: 0 4.5839 15.2388 8.3526 0.0000 -10647.0136 1423.4635 0.0000 0.0000 1733.3449 -7462.0298 295.3306 -9195.3747 -7462.0298 295.3306 -88.8895 21.5519 29754.3000 -88.8895 21.5519
ENERGY: 300000 4.0025 19.6747 8.0752 0.0000 -10514.6533 1427.3960 0.0000 0.0000 1712.9037 -7342.6012 291.8478 -9055.5049 -7361.5141 299.2931 87.0673 177.6460 30264.7437 -228.6374 -128.4334
ENERGY: 600000 3.6529 13.4555 7.7039 0.0000 -10708.2463 1504.7392 0.0000 0.0000 1787.6632 -7391.0317 304.5854 -9178.6949 -7371.7212 301.4050 557.7622 600.1786 30262.8348 50.4735 120.6972
ENERGY: 900000 2.8863 17.5145 4.7836 0.0000 -10496.9109 1341.2968 0.0000 0.0000 1770.7141 -7359.7157 301.6976 -9130.4298 -7372.2613 301.5626 -697.6057 -720.5184 30599.5060 87.2227 139.0068
ENERGY: 1200000 1.9288 20.8873 8.1772 0.0000 -10523.8901 1417.2945 0.0000 0.0000 1754.7309 -7320.8715 298.9744 -9075.6024 -7376.0026 300.3027 341.6803 412.9597 30006.8989 -31.7673 28.8298
ENERGY: 1500000 3.2836 15.3463 7.0477 0.0000 -10513.5134 1319.1180 0.0000 0.0000 1749.2226 -7419.4952 298.0358 -9168.7179 -7390.2193 298.8204 -832.6426 -661.1132 29716.9179 -129.5270 -60.3487
TCL: Running FEP window  18: Lambda1 0.1499999999999997 Lambda2 0.09999999999999969 [dLambda -0.05 ]
TCL: Setting parameter firsttimestep to 0
TCL: Setting parameter alchLambda to 0.1499999999999997
Info: NONBONDED TABLE R-SQUARED SPACING: 0.0625
Info: NONBONDED TABLE SIZE: 705 POINTS
TCL: Setting parameter alchLambda2 to 0.09999999999999969
Info: NONBONDED TABLE R-SQUARED SPACING: 0.0625
Info: NONBONDED TABLE SIZE: 705 POINTS
TCL: Running for 1500000 steps
ETITLE: TS BOND ANGLE DIHED IMPRP ELECT VDW BOUNDARY MISC KINETIC TOTAL TEMP POTENTIAL TOTALAVG TEMPAVG PRESSURE GPRESSURE VOLUME PRESSAVG GPRESSAVG
ENERGY: 0 3.2836 15.3463 7.0477 0.0000 -10513.5141 1318.7319 0.0000 0.0000 1748.3507 -7420.7541 297.8873 -9169.1047 -7420.7541 297.8873 -760.2942 -666.3928 29716.9179 -760.2942 -666.3928
ENERGY: 300000 4.3190 15.3578 4.4684 0.0000 -10494.6313 1315.7617 0.0000 0.0000 1836.8400 -7317.8843 312.9643 -9154.7244 -7377.3594 302.9378 -768.9717 -750.6958 30312.3409 -657.4042 -574.0697
ENERGY: 600000 7.1751 15.3492 5.7977 0.0000 -10588.0172 1451.9866 0.0000 0.0000 1776.2288 -7331.4797 302.6372 -9107.7085 -7355.7767 303.6952 101.2053 203.0777 30081.9429 -479.4790 -388.3516
ENERGY: 900000 3.7653 20.5823 6.2608 0.0000 -10737.8622 1498.2843 0.0000 0.0000 1721.3983 -7487.5712 293.2951 -9208.9694 -7379.9951 300.7755 307.0164 372.9257 30260.2245 -319.5624 -239.6537
ENERGY: 1200000 4.1233 23.6856 3.5193 0.0000 -10661.8775 1400.5860 0.0000 0.0000 1768.6377 -7461.3255 301.3438 -9229.9632 -7388.9411 300.6813 -295.1942 -201.2380 29827.7292 -328.2919 -252.5045
ENERGY: 1500000 1.9308 12.7140 6.1294 0.0000 -10509.5971 1373.9335 0.0000 0.0000 1748.7360 -7366.1534 297.9529 -9114.8894 -7391.2092 300.8598 -146.5272 -111.1647 29941.0224 -203.4205 -125.9019
TCL: Running FEP window  19: Lambda1 0.09999999999999969 Lambda2 0.049999999999999684 [dLambda -0.05 ]
TCL: Setting parameter firsttimestep to 0
TCL: Setting parameter alchLambda to 0.09999999999999969
Info: NONBONDED TABLE R-SQUARED SPACING: 0.0625
Info: NONBONDED TABLE SIZE: 705 POINTS
TCL: Setting parameter alchLambda2 to 0.049999999999999684
Info: NONBONDED TABLE R-SQUARED SPACING: 0.0625
Info: NONBONDED TABLE SIZE: 705 POINTS
TCL: Running for 1500000 steps
ETITLE: TS BOND ANGLE DIHED IMPRP ELECT VDW BOUNDARY MISC KINETIC TOTAL TEMP POTENTIAL TOTALAVG TEMPAVG PRESSURE GPRESSURE VOLUME PRESSAVG GPRESSAVG
ENERGY: 0 1.9308 12.7140 6.1294 0.0000 -10509.5975 1373.5508 0.0000 0.0000 1747.8448 -7367.4278 297.8011 -9115.2725 -7367.4278 297.8011 -208.2418 -117.2202 29941.0224 -208.2418 -117.2202
ENERGY: 300000 3.3579 16.4906 7.9807 0.0000 -10602.1151 1388.3189 0.0000 0.0000 1777.4137 -7408.5534 302.8391 -9185.9671 -7389.2593 301.9945 -383.4946 -322.7026 29917.0116 -60.9993 8.8670
ENERGY: 600000 4.7353 18.7472 5.3623 0.0000 -10472.5517 1375.1586 0.0000 0.0000 1753.0771 -7315.4713 298.6926 -9068.5484 -7395.4475 300.0790 -334.5909 -289.2629 30272.8785 -0.2757 44.4355
ENERGY: 900000 3.1043 16.5115 5.2618 0.0000 -10568.1228 1383.3893 0.0000 0.0000 1771.5504 -7388.3055 301.8401 -9159.8560 -7401.5935 299.1741 -480.8814 -469.8969 30270.3817 -2.0295 39.4929
ENERGY: 1200000 4.1676 17.4188 4.7230 0.0000 -10611.9155 1397.7116 0.0000 0.0000 1789.1548 -7398.7397 304.8396 -9187.8945 -7406.1829 299.6780 -498.1848 -487.0799 30248.8099 -51.4804 5.1661
ENERGY: 1500000 7.1819 16.0318 8.0950 0.0000 -10584.7032 1431.3342 0.0000 0.0000 1767.3590 -7354.7014 301.1260 -9122.0604 -7385.8232 300.6756 110.8126 162.5149 30142.7459 -48.2234 6.9099
TCL: Running FEP window  20: Lambda1 0.049999999999999684 Lambda2 0.0    [dLambda -0.049999999999999684]
TCL: Setting parameter firsttimestep to 0
TCL: Setting parameter alchLambda to 0.049999999999999684
Info: NONBONDED TABLE R-SQUARED SPACING: 0.0625
Info: NONBONDED TABLE SIZE: 705 POINTS
TCL: Setting parameter alchLambda2 to 0.0
Info: NONBONDED TABLE R-SQUARED SPACING: 0.0625
Info: NONBONDED TABLE SIZE: 705 POINTS
TCL: Running for 1500000 steps
ETITLE: TS BOND ANGLE DIHED IMPRP ELECT VDW BOUNDARY MISC KINETIC TOTAL TEMP POTENTIAL TOTALAVG TEMPAVG PRESSURE GPRESSURE VOLUME PRESSAVG GPRESSAVG
ENERGY: 0 7.1819 16.0318 8.0950 0.0000 -10584.6996 1430.7794 0.0000 0.0000 1766.4979 -7356.1136 300.9792 -9122.6115 -7356.1136 300.9792 79.3771 156.2393 30142.7459 79.3771 156.2393
ENERGY: 300000 5.5239 18.6628 4.1902 0.0000 -10725.5962 1482.8622 0.0000 0.0000 1750.2119 -7464.1452 298.2044 -9214.3571 -7433.1480 299.6698 228.2911 261.3173 30195.3828 -8.1289 63.9372
ENERGY: 600000 1.4398 14.3708 6.1885 0.0000 -10849.0041 1554.2902 0.0000 0.0000 1765.0679 -7507.6470 300.7356 -9272.7149 -7431.1757 302.4206 673.2216 752.6917 29836.6340 79.9471 150.3204
ENERGY: 900000 4.0861 11.9765 4.4058 0.0000 -10633.7195 1436.5706 0.0000 0.0000 1757.8201 -7418.8604 299.5007 -9176.6805 -7431.5621 302.3905 -58.6226 25.1190 30459.4760 82.9856 152.0841
ENERGY: 1200000 4.0990 14.2799 6.3418 0.0000 -10647.8367 1433.5286 0.0000 0.0000 1731.1872 -7458.4003 294.9629 -9189.5875 -7434.6613 301.3007 -105.1324 -59.6679 30265.0187 75.6609 145.5026
ENERGY: 1500000 5.8715 18.7618 6.0138 0.0000 -10614.0204 1427.6005 0.0000 0.0000 1720.2760 -7435.4969 293.1039 -9155.7729 -7434.9877 300.2604 -50.3860 -54.5213 30052.2236 108.8412 172.7311
TCL: Exiting due to exit command.
