Info: SIMULATION PARAMETERS:
Info: TIMESTEP               2
Info: NUMBER OF STEPS        0
Info: STEPS PER CYCLE        10
Info: PERIODIC CELL BASIS 1  29.9975 0 0
Info: PERIODIC CELL BASIS 2  0 31.569 0
Info: PERIODIC CELL BASIS 3  0 0 31.9396
Info: PERIODIC CELL CENTER   0 0 0
Info: WRAPPING WATERS AROUND PERIODIC BOUNDARIES ON OUTPUT.
Info: WRAPPING ALL CLUSTERS AROUND PERIODIC BOUNDARIES ON OUTPUT.
Info: FIRST LDB TIMESTEP     50
Info: LAST LDB TIMESTEP     -1
Info: HOM BACKGROUND SCALING 1
Info: PME BACKGROUND SCALING 1
Info: MIN ATOMS PER PATCH    40
Info: EMPTY PATCH LOAD       40 ATOMS
Info: VELOCITY FILE          mobley_718988_equil.vel
Info: CENTER OF MASS MOVING INITIALLY? NO
Info: DIELECTRIC             1
Info: EXCLUDE                SCALED ONE-FOUR
Info: 1-4 ELECTROSTATICS SCALED BY 0.833333
Info: MODIFIED 1-4 VDW PARAMETERS WILL BE USED
Info: DCD FILENAME           mobley_718988_prod.dcd
Info: DCD FREQUENCY          100000
Info: DCD FIRST STEP         100000
Info: DCD FILE WILL CONTAIN UNIT CELL DATA
Info: XST FILENAME           mobley_718988_prod.xst
Info: XST FREQUENCY          100000
Info: NO VELOCITY DCD OUTPUT
Info: NO FORCE DCD OUTPUT
Info: OUTPUT FILENAME        mobley_718988_prod
Info: BINARY OUTPUT FILES WILL BE USED
Info: RESTART FILENAME       mobley_718988_prod.restart
Info: RESTART FREQUENCY      100000
Info: BINARY RESTART FILES WILL BE USED
Info: CUTOFF                 9
Info: PAIRLIST DISTANCE      11
Info: PAIRLIST SHRINK RATE   0.01
Info: PAIRLIST GROW RATE     0.01
Info: PAIRLIST TRIGGER       0.3
Info: PAIRLISTS PER CYCLE    2
Info: PAIRLISTS ENABLED
Info: MARGIN                 2
Info: HYDROGEN GROUP CUTOFF  2.5
Info: PATCH DIMENSION        15.5
Info: ENERGY OUTPUT STEPS    100000
Info: ENERGY EVALUATION STEPS    100000
Info: OUTPUT ENERGY PRECISION 4
Info: CROSSTERM ENERGY INCLUDED IN DIHEDRAL
Info: TIMING OUTPUT STEPS    1000000
Info: PRESSURE OUTPUT STEPS  100000
Info: ALCHEMICAL FEP ON
Info: FEP CURRENT LAMBDA VALUE     0
Info: FEP COMPARISON LAMBDA VALUE  0.05
Info: FEP INTRA-ALCHEMICAL NON-BONDED INTERACTIONS WILL BE RETAINED
Info: FEP INTRA-ALCHEMICAL BONDED INTERACTIONS WILL BE RETAINED
Info: FEP VDW SHIFTING COEFFICIENT 5
Info: FEP ELEC. ACTIVE FOR ANNIHILATED PARTICLES BETWEEN LAMBDA = 0 AND LAMBDA = 0.5
Info: FEP ELEC. ACTIVE FOR EXNIHILATED PARTICLES BETWEEN LAMBDA = 0.5 AND LAMBDA = 1
Info: FEP VDW ACTIVE FOR ANNIHILATED PARTICLES BETWEEN LAMBDA = 0 AND LAMBDA = 1
Info: FEP VDW ACTIVE FOR EXNIHILATED PARTICLES BETWEEN LAMBDA = 0 AND LAMBDA = 1
Info: FEP BOND ACTIVE FOR ANNIHILATED PARTICLES BETWEEN LAMBDA = 1 AND LAMBDA = 1
Info: FEP BOND ACTIVE FOR EXNIHILATED PARTICLES BETWEEN LAMBDA = 0 AND LAMBDA = 0
Info: LANGEVIN DYNAMICS ACTIVE
Info: LANGEVIN TEMPERATURE   300
Info: LANGEVIN USING BBK INTEGRATOR
Info: LANGEVIN DAMPING COEFFICIENT IS 1 INVERSE PS
Info: LANGEVIN DYNAMICS APPLIED TO HYDROGENS
Info: LANGEVIN PISTON PRESSURE CONTROL ACTIVE
Info:        TARGET PRESSURE IS 1.01325 BAR
Info:     OSCILLATION PERIOD IS 50 FS
Info:             DECAY TIME IS 25 FS
Info:     PISTON TEMPERATURE IS 300 K
Info:       PRESSURE CONTROL IS GROUP-BASED
Info:    INITIAL STRAIN RATE IS 5.06473e-05 5.06473e-05 5.06473e-05
Info:       CELL FLUCTUATION IS ISOTROPIC
Info: PARTICLE MESH EWALD (PME) ACTIVE
Info: PME TOLERANCE               1e-06
Info: PME EWALD COEFFICIENT       0.348832
Info: PME INTERPOLATION ORDER     4
Info: PME GRID DIMENSIONS         32 32 32
Info: PME MAXIMUM GRID SPACING    1
Info: PME CALCULATION WILL BE PERFORMED ON GPU
Info: FULL ELECTROSTATIC EVALUATION FREQUENCY      2
Info: USING VERLET I (r-RESPA) MTS SCHEME.
Info: C1 SPLITTING OF LONG RANGE ELECTROSTATICS
Info: PLACING ATOMS IN PATCHES BY HYDROGEN GROUPS
Info: RIGID BONDS TO HYDROGEN : ALL
Info:         ERROR TOLERANCE : 1e-08
Info:          MAX ITERATIONS : 100
Info: RIGID WATER USING SETTLE ALGORITHM
Info: RANDOM NUMBER SEED     1744036377
Info: USE HYDROGEN BONDS?    NO
Info: Using AMBER format force field!
Info: AMBER PARM FILE        mobley_718988.prmtop
Info: COORDINATE PDB         mobley_718988.pdb
Info: Exclusions will be read from PARM file!
Info: SCNB (VDW SCALING)     2
Info: USING ARITHMETIC MEAN TO COMBINE L-J SIGMA PARAMETERS
Info: BINARY COORDINATES     mobley_718988_equil.coor
Info: SUMMARY OF PARAMETERS:
Info: 7 BONDS
Info: 9 ANGLES
Info:   9 HARMONIC
Info:   0 COSINE-BASED
Info: 7 DIHEDRAL
Info: 0 IMPROPER
Info: 0 CROSSTERM
Info: 0 VDW
Info: 28 VDW_PAIRS
Info: 0 NBTHOLE_PAIRS
Info: To read alchdata from file: mobley_718988.pdb
Info: To read alchflag data from column: 5
Info: STRUCTURE SUMMARY:
Info: 2956 ATOMS
Info: 2955 BONDS
Info: 45 ANGLES
Info: 68 DIHEDRALS
Info: 0 IMPROPERS
Info: 0 CROSSTERMS
Info: 3060 EXCLUSIONS
Info: 2948 RIGID BONDS
Info: ALCH: 0 ATOMS TO DISAPPEAR IN FINAL STATE
Info: ALCH: 25 ATOMS TO APPEAR IN FINAL STATE
Info: 5920 DEGREES OF FREEDOM
Info: 985 HYDROGEN GROUPS
Info: 4 ATOMS IN LARGEST HYDROGEN GROUP
Info: 985 MIGRATION GROUPS
Info: 4 ATOMS IN LARGEST MIGRATION GROUP
Info: TOTAL MASS = 17716.8 amu
Info: TOTAL CHARGE = -0.000199948 e
Info: MASS DENSITY = 0.972681 g/cm^3
Info: ATOM DENSITY = 0.0977303 atoms/A^3
Info: ADDED 0 IMPLICIT EXCLUSIONS
Info: NONBONDED TABLE R-SQUARED SPACING: 0.0625
Info: NONBONDED TABLE SIZE: 705 POINTS
Info: REMOVING COM VELOCITY 0.109229 0.222046 -0.0783857
Info: Use 3D box decompostion in PME FFT.
Info: Updated CUDA force table with 4096 elements.
Info: Updated CUDA LJ table with 7 x 7 elements.
Info: Found 28 unique exclusion lists needing 96 bytes
TCL: Running for 1500000 steps
ETITLE: TS BOND ANGLE DIHED IMPRP ELECT VDW BOUNDARY MISC KINETIC TOTAL TEMP POTENTIAL TOTALAVG TEMPAVG PRESSURE GPRESSURE VOLUME PRESSAVG GPRESSAVG
ENERGY: 0 1.5369 10.5991 6.1619 0.0000 -10528.6195 1357.9089 0.0000 0.0000 1764.3448 -7388.0679 299.9523 -9152.4127 -7388.0679 299.9523 -438.9391 -343.7499 30246.4998 -438.9391 -343.7499
ENERGY: 300000 1.6107 12.0428 3.9991 0.0000 -10650.5254 1487.1702 0.0000 0.0000 1799.8990 -7345.8036 305.9967 -9145.7026 -7449.0515 297.1931 518.6022 651.2317 30220.9215 -129.1624 -16.4549
ENERGY: 600000 0.9580 11.2965 2.7283 0.0000 -10645.6665 1434.7968 0.0000 0.0000 1765.5171 -7430.3698 300.1516 -9195.8869 -7442.6141 296.9903 63.0075 53.6363 30258.2595 105.2935 172.7608
ENERGY: 900000 1.6759 15.8714 3.8002 0.0000 -10613.9303 1356.4076 0.0000 0.0000 1783.3889 -7452.7863 303.1899 -9236.1752 -7441.7244 297.7898 -399.5484 -327.6035 29856.9704 108.0944 176.9959
ENERGY: 1200000 3.6358 15.1144 2.9640 0.0000 -10624.1829 1415.8665 0.0000 0.0000 1691.3350 -7495.2673 287.5400 -9186.6023 -7441.9253 297.0489 -167.1895 -39.1946 29978.3504 138.7727 206.4533
ENERGY: 1500000 2.5091 15.5361 3.7277 0.0000 -10740.0120 1543.9493 0.0000 0.0000 1786.0735 -7388.2163 303.6463 -9174.2898 -7443.1850 297.9049 908.4658 944.9619 30367.6819 176.4052 241.1825
TCL: Running FEP window   2: Lambda1 0.05   Lambda2 0.1    [dLambda 0.05  ]
TCL: Setting parameter firsttimestep to 0
TCL: Setting parameter alchLambda to 0.05
Info: NONBONDED TABLE R-SQUARED SPACING: 0.0625
Info: NONBONDED TABLE SIZE: 705 POINTS
TCL: Setting parameter alchLambda2 to 0.1
Info: NONBONDED TABLE R-SQUARED SPACING: 0.0625
Info: NONBONDED TABLE SIZE: 705 POINTS
TCL: Running for 1500000 steps
ETITLE: TS BOND ANGLE DIHED IMPRP ELECT VDW BOUNDARY MISC KINETIC TOTAL TEMP POTENTIAL TOTALAVG TEMPAVG PRESSURE GPRESSURE VOLUME PRESSAVG GPRESSAVG
ENERGY: 0 2.5091 15.5361 3.7277 0.0000 -10740.0120 1544.2630 0.0000 0.0000 1785.2213 -7388.7548 303.5014 -9173.9761 -7388.7548 303.5014 873.1858 947.5930 30367.6819 873.1858 947.5930
ENERGY: 300000 2.6686 11.6587 2.7125 0.0000 -10660.3121 1387.0283 0.0000 0.0000 1752.1910 -7504.0529 297.8860 -9256.2440 -7435.3013 304.0455 -481.1572 -392.3385 29955.2055 349.4985 433.0979
ENERGY: 600000 3.1811 8.6634 3.4191 0.0000 -10628.6190 1434.9029 0.0000 0.0000 1739.1955 -7439.2570 295.6767 -9178.4525 -7462.4552 301.4843 48.9906 89.7647 30257.0626 365.7169 428.3613
ENERGY: 900000 3.3530 12.7304 3.1766 0.0000 -10748.2700 1480.1502 0.0000 0.0000 1764.2194 -7484.6404 299.9309 -9248.8597 -7446.8589 302.3025 198.9509 201.0201 29970.4213 397.1591 451.7254
ENERGY: 1200000 4.5802 8.7448 2.6296 0.0000 -10661.8494 1396.1556 0.0000 0.0000 1816.8894 -7432.8498 308.8852 -9249.7392 -7440.2300 302.4459 -441.4391 -378.0668 30353.0879 176.7500 233.2425
ENERGY: 1500000 2.2558 12.2977 3.1994 0.0000 -10683.9364 1433.5770 0.0000 0.0000 1728.4094 -7504.1971 293.8430 -9232.6065 -7448.3450 300.9764 -181.8019 -115.2032 30259.1712 68.3149 127.4720
TCL: Running FEP window   3: Lambda1 0.1    Lambda2 0.15000000000000002 [dLambda 0.05000000000000002]
TCL: Setting parameter firsttimestep to 0
TCL: Setting parameter alchLambda to 0.1
Info: NONBONDED TABLE R-SQUARED SPACING: 0.0625
Info: NONBONDED TABLE SIZE: 705 POINTS
TCL: Setting parameter alchLambda2 to 0.15000000000000002
Info: NONBONDED TABLE R-SQUARED SPACING: 0.0625
Info: NONBONDED TABLE SIZE: 705 POINTS
TCL: Running for 1500000 steps
ETITLE: TS BOND ANGLE DIHED IMPRP ELECT VDW BOUNDARY MISC KINETIC TOTAL TEMP POTENTIAL TOTALAVG TEMPAVG PRESSURE GPRESSURE VOLUME PRESSAVG GPRESSAVG
ENERGY: 0 2.2558 12.2977 3.1994 0.0000 -10683.9371 1434.7080 0.0000 0.0000 1727.5309 -7503.9453 293.6936 -9231.4762 -7503.9453 293.6936 -182.8168 -107.5897 30259.1712 -182.8168 -107.5897
ENERGY: 300000 3.3180 11.3150 2.9807 0.0000 -10662.7811 1433.3147 0.0000 0.0000 1784.0986 -7427.7543 303.3106 -9211.8528 -7490.3812 298.8790 85.4830 163.1883 30319.4137 141.3543 221.8288
ENERGY: 600000 0.7796 7.0767 3.9345 0.0000 -10800.2910 1510.4142 0.0000 0.0000 1787.7301 -7490.3558 303.9279 -9278.0859 -7464.0053 300.3989 368.4141 447.4985 30229.9946 99.2518 164.8390
ENERGY: 900000 1.8354 11.4696 6.4658 0.0000 -10773.4365 1430.3078 0.0000 0.0000 1761.3876 -7561.9703 299.4495 -9323.3579 -7466.6388 301.0992 -335.7000 -224.9755 29827.7743 145.0138 216.6369
ENERGY: 1200000 1.8340 11.2450 4.7391 0.0000 -10424.5997 1323.2317 0.0000 0.0000 1744.9257 -7338.6242 296.6509 -9083.5499 -7457.5014 300.9343 -745.2565 -705.0966 30563.5668 16.8206 91.6901
ENERGY: 1500000 4.5609 10.6625 2.6382 0.0000 -10586.5961 1360.6378 0.0000 0.0000 1734.9888 -7473.1079 294.9615 -9208.0967 -7451.1756 300.4408 -670.2978 -574.6529 30075.1121 -58.2704 14.3583
TCL: Running FEP window   4: Lambda1 0.15000000000000002 Lambda2 0.2    [dLambda 0.04999999999999999]
TCL: Setting parameter firsttimestep to 0
TCL: Setting parameter alchLambda to 0.15000000000000002
Info: NONBONDED TABLE R-SQUARED SPACING: 0.0625
Info: NONBONDED TABLE SIZE: 705 POINTS
TCL: Setting parameter alchLambda2 to 0.2
Info: NONBONDED TABLE R-SQUARED SPACING: 0.0625
Info: NONBONDED TABLE SIZE: 705 POINTS
TCL: Running for 1500000 steps
ETITLE: TS BOND ANGLE DIHED IMPRP ELECT VDW BOUNDARY MISC KINETIC TOTAL TEMP POTENTIAL TOTALAVG TEMPAVG PRESSURE GPRESSURE VOLUME PRESSAVG GPRESSAVG
ENERGY: 0 4.5609 10.6625 2.6382 0.0000 -10586.5966 1361.7030 0.0000 0.0000 1734.0752 -7472.9569 294.8062 -9207.0321 -7472.9569 294.8062 -646.4164 -565.6729 30075.1121 -646.4164 -565.6729
ENERGY: 300000 0.7883 8.6170 5.1591 0.0000 -10626.3462 1392.3258 0.0000 0.0000 1822.2236 -7397.2323 309.7921 -9219.4560 -7436.7800 301.2785 -435.1829 -363.6393 30547.4527 -226.1508 -139.4832
ENERGY: 600000 2.9892 10.9237 3.4675 0.0000 -10569.9576 1374.1856 0.0000 0.0000 1759.7667 -7418.6249 299.1740 -9178.3916 -7406.1499 302.8182 -349.0826 -310.3007 30194.8504 -147.5944 -67.5770
ENERGY: 900000 2.2335 17.0072 3.6664 0.0000 -10572.3587 1413.8919 0.0000 0.0000 1806.8429 -7328.7169 307.1773 -9135.5598 -7415.9437 302.8565 -133.2001 -98.5649 30836.2477 -228.4866 -155.8130
ENERGY: 1200000 1.2609 10.2637 3.6382 0.0000 -10619.5599 1379.1165 0.0000 0.0000 1790.9007 -7434.3799 304.4670 -9225.2806 -7412.1642 303.5543 -614.9243 -513.3847 30417.0607 -202.2447 -132.5976
ENERGY: 1500000 1.7347 14.4983 3.8111 0.0000 -10599.2883 1366.8589 0.0000 0.0000 1806.4297 -7405.9557 307.1070 -9212.3854 -7412.3553 302.6422 -638.2775 -557.1954 30430.3727 -156.7194 -88.7979
TCL: Running FEP window   5: Lambda1 0.2    Lambda2 0.25   [dLambda 0.04999999999999999]
TCL: Setting parameter firsttimestep to 0
TCL: Setting parameter alchLambda to 0.2
Info: NONBONDED TABLE R-SQUARED SPACING: 0.0625
Info: NONBONDED TABLE SIZE: 705 POINTS
TCL: Setting parameter alchLambda2 to 0.25
Info: NONBONDED TABLE R-SQUARED SPACING: 0.0625
Info: NONBONDED TABLE SIZE: 705 POINTS
TCL: Running for 1500000 steps
ETITLE: TS BOND ANGLE DIHED IMPRP ELECT VDW BOUNDARY MISC KINETIC TOTAL TEMP POTENTIAL TOTALAVG TEMPAVG PRESSURE GPRESSURE VOLUME PRESSAVG GPRESSAVG
ENERGY: 0 1.7347 14.4983 3.8111 0.0000 -10599.2891 1366.3022 0.0000 0.0000 1805.5721 -7407.3707 306.9612 -9212.9429 -7407.3707 306.9612 -629.7170 -555.2294 30430.3727 -629.7170 -555.2294
ENERGY: 300000 1.1858 13.7554 4.6045 0.0000 -10664.2396 1409.4064 0.0000 0.0000 1739.9601 -7495.3273 295.8067 -9235.2874 -7473.2702 297.9209 -308.8339 -208.6484 29860.9689 -488.0879 -426.5768
ENERGY: 600000 1.4865 12.9218 3.8715 0.0000 -10866.1496 1586.8437 0.0000 0.0000 1760.8731 -7500.1529 299.3620 -9261.0260 -7488.9294 297.5553 1431.4626 1468.3128 29651.9575 -147.9683 -91.1189
ENERGY: 900000 1.7852 16.4375 4.0342 0.0000 -10576.8403 1359.8304 0.0000 0.0000 1738.3190 -7456.4340 295.5277 -9194.7530 -7457.2813 298.8936 -780.3375 -681.5659 30459.3319 -251.0416 -194.3653
ENERGY: 1200000 2.6268 14.5164 3.3123 0.0000 -10696.2495 1460.4982 0.0000 0.0000 1695.4854 -7519.8103 288.2456 -9215.2957 -7459.2187 298.1274 236.1832 282.1113 29850.8889 -203.5937 -148.5824
ENERGY: 1500000 2.8589 11.6812 3.6327 0.0000 -10742.9042 1464.5807 0.0000 0.0000 1764.9331 -7495.2175 300.0523 -9260.1506 -7454.7735 299.2400 532.5636 577.9813 29612.8412 -196.4161 -135.8375
TCL: Running FEP window   6: Lambda1 0.25   Lambda2 0.3    [dLambda 0.04999999999999999]
TCL: Setting parameter firsttimestep to 0
TCL: Setting parameter alchLambda to 0.25
Info: NONBONDED TABLE R-SQUARED SPACING: 0.0625
Info: NONBONDED TABLE SIZE: 705 POINTS
TCL: Setting parameter alchLambda2 to 0.3
Info: NONBONDED TABLE R-SQUARED SPACING: 0.0625
Info: NONBONDED TABLE SIZE: 705 POINTS
TCL: Running for 1500000 steps
ETITLE: TS BOND ANGLE DIHED IMPRP ELECT VDW BOUNDARY MISC KINETIC TOTAL TEMP POTENTIAL TOTALAVG TEMPAVG PRESSURE GPRESSURE VOLUME PRESSAVG GPRESSAVG
ENERGY: 0 2.8589 11.6812 3.6327 0.0000 -10742.9053 1464.3002 0.0000 0.0000 1764.0472 -7496.3851 299.9017 -9260.4323 -7496.3851 299.9017 503.9535 580.9948 29612.8412 503.9535 580.9948
ENERGY: 300000 2.6288 10.1033 3.3030 0.0000 -10787.2593 1492.2543 0.0000 0.0000 1813.9601 -7465.0099 308.3872 -9278.9699 -7450.8017 302.5406 678.1869 696.2103 29618.9796 329.2138 388.9638
ENERGY: 600000 1.5934 10.1627 4.3713 0.0000 -10619.9395 1396.0294 0.0000 0.0000 1746.7593 -7461.0234 296.9626 -9207.7826 -7463.4288 299.4640 -219.4132 -127.5088 30030.9885 197.5164 261.8266
ENERGY: 900000 1.5155 14.6387 3.8448 0.0000 -10603.5329 1430.8209 0.0000 0.0000 1834.4803 -7318.2327 311.8758 -9152.7130 -7443.8976 299.8452 173.7540 237.3397 30275.3151 99.7899 157.6297
ENERGY: 1200000 3.2088 9.5125 3.8828 0.0000 -10672.3629 1427.3985 0.0000 0.0000 1725.9865 -7502.3737 293.4311 -9228.3603 -7442.9300 298.9883 -235.8655 -162.9244 30659.6267 -26.9736 30.0726
ENERGY: 1500000 3.2215 10.1053 6.5164 0.0000 -10667.9425 1387.3013 0.0000 0.0000 1837.1907 -7423.6073 312.3366 -9260.7980 -7438.9426 300.2429 -573.2104 -516.3613 30617.6191 -53.6964 2.7806
TCL: Running FEP window   7: Lambda1 0.3    Lambda2 0.35   [dLambda 0.04999999999999999]
TCL: Setting parameter firsttimestep to 0
TCL: Setting parameter alchLambda to 0.3
Info: NONBONDED TABLE R-SQUARED SPACING: 0.0625
Info: NONBONDED TABLE SIZE: 705 POINTS
TCL: Setting parameter alchLambda2 to 0.35
Info: NONBONDED TABLE R-SQUARED SPACING: 0.0625
Info: NONBONDED TABLE SIZE: 705 POINTS
TCL: Running for 1500000 steps
ETITLE: TS BOND ANGLE DIHED IMPRP ELECT VDW BOUNDARY MISC KINETIC TOTAL TEMP POTENTIAL TOTALAVG TEMPAVG PRESSURE GPRESSURE VOLUME PRESSAVG GPRESSAVG
ENERGY: 0 3.2215 10.1053 6.5164 0.0000 -10667.9459 1387.6085 0.0000 0.0000 1836.3181 -7424.1761 312.1883 -9260.4942 -7424.1761 312.1883 -610.3129 -508.3893 30617.6191 -610.3129 -508.3893
ENERGY: 300000 2.5505 9.2410 2.6301 0.0000 -10752.9193 1447.7113 0.0000 0.0000 1821.2309 -7469.5555 309.6233 -9290.7864 -7434.6573 303.5978 146.6433 172.4270 29728.6214 3.2074 64.3240
ENERGY: 600000 1.4526 11.5463 2.7425 0.0000 -10628.2330 1397.7784 0.0000 0.0000 1738.1833 -7476.5299 295.5046 -9214.7132 -7448.1741 300.0736 -577.8598 -467.9716 30605.2008 -230.7375 -172.6264
ENERGY: 900000 2.9982 9.8849 3.2824 0.0000 -10704.8584 1425.6602 0.0000 0.0000 1754.3401 -7508.6926 298.2514 -9263.0327 -7443.2997 300.6273 -148.6795 -62.3520 29858.9125 -136.2239 -78.2404
ENERGY: 1200000 3.3596 11.2700 4.0363 0.0000 -10548.9601 1340.1850 0.0000 0.0000 1732.6714 -7457.4379 294.5675 -9190.1093 -7438.7504 300.3215 -844.7121 -725.3453 30176.1182 -284.1855 -211.3488
ENERGY: 1500000 1.4427 8.0845 5.3360 0.0000 -10645.8074 1417.0992 0.0000 0.0000 1750.1394 -7463.7057 297.5372 -9213.8450 -7443.1468 300.3273 -113.7473 -127.3788 30314.3736 -301.6147 -236.9641
TCL: Running FEP window   8: Lambda1 0.35   Lambda2 0.39999999999999997 [dLambda 0.04999999999999999]
TCL: Setting parameter firsttimestep to 0
TCL: Setting parameter alchLambda to 0.35
Info: NONBONDED TABLE R-SQUARED SPACING: 0.0625
Info: NONBONDED TABLE SIZE: 705 POINTS
TCL: Setting parameter alchLambda2 to 0.39999999999999997
Info: NONBONDED TABLE R-SQUARED SPACING: 0.0625
Info: NONBONDED TABLE SIZE: 705 POINTS
TCL: Running for 1500000 steps
ETITLE: TS BOND ANGLE DIHED IMPRP ELECT VDW BOUNDARY MISC KINETIC TOTAL TEMP POTENTIAL TOTALAVG TEMPAVG PRESSURE GPRESSURE VOLUME PRESSAVG GPRESSAVG
ENERGY: 0 1.4427 8.0845 5.3360 0.0000 -10645.8070 1417.0380 0.0000 0.0000 1749.2934 -7464.6124 297.3934 -9213.9058 -7464.6124 297.3934 -199.6944 -125.4392 30314.3736 -199.6944 -125.4392
ENERGY: 300000 4.3325 15.1127 3.1112 0.0000 -10739.4306 1489.0986 0.0000 0.0000 1772.9975 -7454.7781 301.4233 -9227.7756 -7437.2074 302.2920 88.1808 144.6313 30407.8875 -182.4536 -90.5888
ENERGY: 600000 0.8024 7.9549 4.0588 0.0000 -10625.0033 1446.4014 0.0000 0.0000 1691.7037 -7474.0821 287.6027 -9165.7858 -7454.8367 298.6257 197.0480 225.4795 30367.9780 -127.3628 -56.7776
ENERGY: 900000 1.3232 14.2208 3.5449 0.0000 -10676.1898 1432.3857 0.0000 0.0000 1777.7941 -7446.9211 302.2388 -9224.7153 -7461.3474 299.6559 -234.5729 -153.4860 30479.1228 -77.7576 -3.1238
ENERGY: 1200000 1.2395 13.7580 4.1002 0.0000 -10486.3564 1354.2758 0.0000 0.0000 1780.7412 -7332.2418 302.7398 -9112.9829 -7459.6350 299.1079 -375.6339 -282.3992 30485.3045 -52.0602 26.2403
ENERGY: 1500000 0.5662 14.8193 6.2807 0.0000 -10773.3228 1508.2971 0.0000 0.0000 1764.3248 -7479.0346 299.9489 -9243.3594 -7460.2652 299.6777 707.2064 728.3096 30170.6668 -25.3144 46.5816
TCL: Running FEP window   9: Lambda1 0.39999999999999997 Lambda2 0.44999999999999996 [dLambda 0.04999999999999999]
TCL: Setting parameter firsttimestep to 0
TCL: Setting parameter alchLambda to 0.39999999999999997
Info: NONBONDED TABLE R-SQUARED SPACING: 0.0625
Info: NONBONDED TABLE SIZE: 705 POINTS
TCL: Setting parameter alchLambda2 to 0.44999999999999996
Info: NONBONDED TABLE R-SQUARED SPACING: 0.0625
Info: NONBONDED TABLE SIZE: 705 POINTS
TCL: Running for 1500000 steps
ETITLE: TS BOND ANGLE DIHED IMPRP ELECT VDW BOUNDARY MISC KINETIC TOTAL TEMP POTENTIAL TOTALAVG TEMPAVG PRESSURE GPRESSURE VOLUME PRESSAVG GPRESSAVG
ENERGY: 0 0.5662 14.8193 6.2807 0.0000 -10773.3221 1508.9006 0.0000 0.0000 1763.4640 -7479.2913 299.8025 -9242.7553 -7479.2913 299.8025 661.5694 738.2079 30170.6668 661.5694 738.2079
ENERGY: 300000 1.0832 9.8946 5.9422 0.0000 -10662.8878 1418.0648 0.0000 0.0000 1830.2205 -7397.6825 311.1516 -9227.9030 -7434.0986 302.1079 -234.0176 -129.0342 30238.9300 -156.5980 -82.7150
ENERGY: 600000 0.5816 9.8147 3.9487 0.0000 -10704.6983 1449.4215 0.0000 0.0000 1786.5133 -7454.4185 303.7211 -9240.9318 -7442.5942 302.9076 26.7188 90.9294 30111.9176 46.1489 115.9437
ENERGY: 900000 1.0657 12.5747 3.3614 0.0000 -10667.4446 1375.4448 0.0000 0.0000 1786.2393 -7488.7587 303.6745 -9274.9980 -7440.3711 302.2517 -729.5167 -664.0011 30515.8991 -0.4382 59.2966
ENERGY: 1200000 4.6729 14.6577 2.6724 0.0000 -10579.8446 1367.3076 0.0000 0.0000 1792.1344 -7398.3996 304.6767 -9190.5340 -7442.6633 300.7332 -583.0433 -470.8361 30117.7642 -86.1062 -24.3735
ENERGY: 1500000 4.1870 11.7089 4.4183 0.0000 -10655.3133 1451.2371 0.0000 0.0000 1781.7208 -7402.0412 302.9063 -9183.7619 -7445.0142 299.9614 -14.6603 21.9220 30983.8863 -72.8106 -18.4390
TCL: Running FEP window  10: Lambda1 0.44999999999999996 Lambda2 0.49999999999999994 [dLambda 0.04999999999999999]
TCL: Setting parameter firsttimestep to 0
TCL: Setting parameter alchLambda to 0.44999999999999996
Info: NONBONDED TABLE R-SQUARED SPACING: 0.0625
Info: NONBONDED TABLE SIZE: 705 POINTS
TCL: Setting parameter alchLambda2 to 0.49999999999999994
Info: NONBONDED TABLE R-SQUARED SPACING: 0.0625
Info: NONBONDED TABLE SIZE: 705 POINTS
TCL: Running for 1500000 steps
ETITLE: TS BOND ANGLE DIHED IMPRP ELECT VDW BOUNDARY MISC KINETIC TOTAL TEMP POTENTIAL TOTALAVG TEMPAVG PRESSURE GPRESSURE VOLUME PRESSAVG GPRESSAVG
ENERGY: 0 4.1870 11.7089 4.4183 0.0000 -10655.3143 1450.9013 0.0000 0.0000 1780.8089 -7403.2899 302.7513 -9184.0988 -7403.2899 302.7513 -51.8226 24.9178 30983.8863 -51.8226 24.9178
ENERGY: 300000 2.6240 14.7874 7.0134 0.0000 -10651.9325 1415.6759 0.0000 0.0000 1766.0717 -7445.7601 300.2458 -9211.8318 -7466.9142 296.9074 102.3047 197.5181 30198.7833 -58.4358 15.7525
ENERGY: 600000 0.3541 8.1076 4.1370 0.0000 -10714.3596 1441.6064 0.0000 0.0000 1767.5384 -7492.6161 300.4952 -9260.1545 -7432.2742 300.5007 -40.2528 6.4124 30243.3183 -185.9012 -113.6105
ENERGY: 900000 3.5256 13.4614 4.7683 0.0000 -10663.6864 1395.0426 0.0000 0.0000 1846.7704 -7400.1181 313.9652 -9246.8885 -7431.9157 300.9117 -464.3497 -412.9024 30118.6418 -52.6191 20.7005
ENERGY: 1200000 1.7905 10.6177 4.9574 0.0000 -10647.8834 1414.3927 0.0000 0.0000 1810.0490 -7406.0762 307.7223 -9216.1252 -7440.3296 300.9041 -177.3071 -68.8585 30380.3594 -158.8121 -82.4034
ENERGY: 1500000 3.2166 11.8576 4.2211 0.0000 -10605.7811 1330.5948 0.0000 0.0000 1803.9861 -7451.9050 306.6916 -9255.8911 -7439.2972 301.4174 -934.2449 -824.3250 30414.7902 -230.9098 -156.5046
TCL: Running FEP window  11: Lambda1 0.49999999999999994 Lambda2 0.5499999999999999 [dLambda 0.04999999999999999]
TCL: Setting parameter firsttimestep to 0
TCL: Setting parameter alchLambda to 0.49999999999999994
Info: NONBONDED TABLE R-SQUARED SPACING: 0.0625
Info: NONBONDED TABLE SIZE: 705 POINTS
TCL: Setting parameter alchLambda2 to 0.5499999999999999
Info: NONBONDED TABLE R-SQUARED SPACING: 0.0625
Info: NONBONDED TABLE SIZE: 705 POINTS
TCL: Running for 1500000 steps
ETITLE: TS BOND ANGLE DIHED IMPRP ELECT VDW BOUNDARY MISC KINETIC TOTAL TEMP POTENTIAL TOTALAVG TEMPAVG PRESSURE GPRESSURE VOLUME PRESSAVG GPRESSAVG
ENERGY: 0 3.2166 11.8576 4.2211 0.0000 -10605.7845 1329.9698 0.0000 0.0000 1803.1117 -7453.4078 306.5429 -9256.5195 -7453.4078 306.5429 -917.3221 -820.7579 30414.7902 -917.3221 -820.7579
ENERGY: 300000 2.2811 9.5151 6.0825 0.0000 -10549.7438 1405.4694 0.0000 0.0000 1840.3894 -7286.0063 312.8804 -9126.3957 -7410.8652 302.7126 -162.2804 -45.6780 30695.9998 -231.7090 -171.5617
ENERGY: 600000 2.4059 10.1414 2.6339 0.0000 -10700.3074 1437.8297 0.0000 0.0000 1754.7645 -7492.5320 298.3235 -9247.2965 -7438.8054 300.9165 -285.6256 -228.5761 30484.8676 -194.7684 -135.7979
ENERGY: 900000 1.2037 10.0941 3.6569 0.0000 -10581.7149 1410.1158 0.0000 0.0000 1726.5368 -7430.1076 293.5246 -9156.6444 -7447.6700 300.1079 -15.5245 48.0494 30075.3722 -208.4504 -134.3511
ENERGY: 1200000 2.1024 15.4927 6.2729 0.0000 -10695.2804 1413.5978 0.0000 0.0000 1753.4987 -7504.3159 298.1083 -9257.8146 -7453.3648 299.2489 -381.9111 -355.1016 30468.7599 -179.5971 -108.0263
ENERGY: 1500000 1.2575 11.8600 5.0038 0.0000 -10705.0043 1439.8755 0.0000 0.0000 1739.4511 -7507.5564 295.7201 -9247.0075 -7462.5729 299.8530 -61.0860 37.2788 30395.6078 -179.3521 -106.3645
TCL: Running FEP window  12: Lambda1 0.5499999999999999 Lambda2 0.6    [dLambda 0.050000000000000044]
TCL: Setting parameter firsttimestep to 0
TCL: Setting parameter alchLambda to 0.5499999999999999
Info: NONBONDED TABLE R-SQUARED SPACING: 0.0625
Info: NONBONDED TABLE SIZE: 705 POINTS
TCL: Setting parameter alchLambda2 to 0.6
Info: NONBONDED TABLE R-SQUARED SPACING: 0.0625
Info: NONBONDED TABLE SIZE: 705 POINTS
TCL: Running for 1500000 steps
ETITLE: TS BOND ANGLE DIHED IMPRP ELECT VDW BOUNDARY MISC KINETIC TOTAL TEMP POTENTIAL TOTALAVG TEMPAVG PRESSURE GPRESSURE VOLUME PRESSAVG GPRESSAVG
ENERGY: 0 1.2575 11.8600 5.0038 0.0000 -10704.9846 1440.3177 0.0000 0.0000 1738.5876 -7507.9579 295.5733 -9246.5455 -7507.9579 295.5733 -34.1609 51.4012 30395.6078 -34.1609 51.4012
ENERGY: 300000 2.2727 10.5344 5.1697 0.0000 -10646.4300 1482.1215 0.0000 0.0000 1731.7739 -7414.5578 294.4149 -9146.3316 -7493.5007 294.0826 408.2187 455.9001 30563.0122 91.4031 147.7902
ENERGY: 600000 1.7963 10.0791 3.1442 0.0000 -10569.1899 1380.5041 0.0000 0.0000 1778.8121 -7394.8540 302.4118 -9173.6661 -7472.7333 295.0958 -488.1781 -450.8668 30678.0765 -74.3921 -34.7749
ENERGY: 900000 1.7960 6.5563 5.0095 0.0000 -10698.4421 1476.6877 0.0000 0.0000 1748.4355 -7459.9571 297.2476 -9208.3926 -7489.5101 295.2369 363.7055 483.3447 30380.7779 104.5518 158.6257
ENERGY: 1200000 3.4053 11.9047 3.2708 0.0000 -10735.9557 1403.5614 0.0000 0.0000 1766.0605 -7547.7530 300.2439 -9313.8134 -7478.9933 297.1187 -514.8280 -471.6311 30429.0024 2.5048 55.9673
ENERGY: 1500000 2.7518 11.1117 5.0850 0.0000 -10638.4873 1430.4604 0.0000 0.0000 1734.5300 -7454.5483 294.8835 -9189.0783 -7478.6699 296.3229 -13.8267 68.5377 30212.9383 -0.2096 56.7767
TCL: Running FEP window  13: Lambda1 0.6    Lambda2 0.65   [dLambda 0.050000000000000044]
TCL: Setting parameter firsttimestep to 0
TCL: Setting parameter alchLambda to 0.6
Info: NONBONDED TABLE R-SQUARED SPACING: 0.0625
Info: NONBONDED TABLE SIZE: 705 POINTS
TCL: Setting parameter alchLambda2 to 0.65
Info: NONBONDED TABLE R-SQUARED SPACING: 0.0625
Info: NONBONDED TABLE SIZE: 705 POINTS
TCL: Running for 1500000 steps
ETITLE: TS BOND ANGLE DIHED IMPRP ELECT VDW BOUNDARY MISC KINETIC TOTAL TEMP POTENTIAL TOTALAVG TEMPAVG PRESSURE GPRESSURE VOLUME PRESSAVG GPRESSAVG
ENERGY: 0 2.7518 11.1117 5.0850 0.0000 -10638.7322 1431.5575 0.0000 0.0000 1733.6594 -7454.5668 294.7355 -9188.2262 -7454.5668 294.7355 25.7533 90.3976 30212.9383 25.7533 90.3976
ENERGY: 300000 3.0443 9.6536 3.8989 0.0000 -10604.0133 1360.1321 0.0000 0.0000 1735.3074 -7491.9770 295.0157 -9227.2844 -7469.9320 294.5892 -867.3842 -760.9601 30199.9680 7.1074 75.7310
ENERGY: 600000 3.3690 6.8681 2.3764 0.0000 -10659.1825 1453.6850 0.0000 0.0000 1770.3601 -7422.5239 300.9749 -9192.8840 -7452.9816 298.1795 84.7971 157.5712 30512.2897 -91.5064 -14.3347
ENERGY: 900000 1.9964 10.0969 3.8343 0.0000 -10856.5619 1557.4067 0.0000 0.0000 1719.6430 -7563.5847 292.3526 -9283.2276 -7461.5177 298.5221 753.3027 823.2310 30061.9578 -17.7927 56.5895
ENERGY: 1200000 1.5646 13.4690 3.5634 0.0000 -10508.9912 1343.6345 0.0000 0.0000 1784.8112 -7361.9485 303.4317 -9146.7597 -7444.4506 299.2255 -722.9321 -640.0390 30486.9280 -143.1540 -77.9232
ENERGY: 1500000 3.7654 8.0559 4.5113 0.0000 -10587.6228 1406.2323 0.0000 0.0000 1764.9673 -7400.0906 300.0581 -9165.0579 -7434.7594 300.1798 -467.6673 -377.7630 30638.0146 -165.9065 -100.6539
TCL: Running FEP window  14: Lambda1 0.65   Lambda2 0.7000000000000001 [dLambda 0.050000000000000044]
TCL: Setting parameter firsttimestep to 0
TCL: Setting parameter alchLambda to 0.65
Info: NONBONDED TABLE R-SQUARED SPACING: 0.0625
Info: NONBONDED TABLE SIZE: 705 POINTS
TCL: Setting parameter alchLambda2 to 0.7000000000000001
Info: NONBONDED TABLE R-SQUARED SPACING: 0.0625
Info: NONBONDED TABLE SIZE: 705 POINTS
TCL: Running for 1500000 steps
ETITLE: TS BOND ANGLE DIHED IMPRP ELECT VDW BOUNDARY MISC KINETIC TOTAL TEMP POTENTIAL TOTALAVG TEMPAVG PRESSURE GPRESSURE VOLUME PRESSAVG GPRESSAVG
ENERGY: 0 3.7654 8.0559 4.5113 0.0000 -10587.7726 1406.2267 0.0000 0.0000 1764.1079 -7401.1054 299.9120 -9165.2133 -7401.1054 299.9120 -456.0127 -369.2036 30638.0146 -456.0127 -369.2036
ENERGY: 300000 1.5870 12.1081 2.8566 0.0000 -10712.3338 1480.9231 0.0000 0.0000 1779.0158 -7435.8431 302.4464 -9214.8589 -7394.1220 301.0296 467.9851 524.0204 30376.1936 8.2362 41.9429
ENERGY: 600000 2.6800 13.9303 3.5644 0.0000 -10581.1601 1354.5605 0.0000 0.0000 1733.3416 -7473.0834 294.6815 -9206.4250 -7447.1563 296.8038 -425.5219 -342.4159 30091.7740 6.0356 51.3756
ENERGY: 900000 1.1561 14.0927 2.4897 0.0000 -10532.7724 1387.4847 0.0000 0.0000 1822.5008 -7305.0484 309.8392 -9127.5491 -7426.5529 298.6364 -18.8607 48.1688 30348.6952 -30.3162 16.3252
ENERGY: 1200000 1.7398 9.4224 2.9611 0.0000 -10606.8822 1346.0942 0.0000 0.0000 1790.3791 -7456.2856 304.3783 -9246.6647 -7436.0378 300.1489 -855.3674 -811.8109 30490.3527 -118.9886 -74.8714
ENERGY: 1500000 1.1857 12.8655 4.4999 0.0000 -10720.9576 1472.9284 0.0000 0.0000 1772.6366 -7456.8415 301.3619 -9229.4782 -7442.0365 300.6627 -39.2171 -18.6478 30705.9349 -94.1395 -49.0568
TCL: Running FEP window  15: Lambda1 0.7000000000000001 Lambda2 0.7500000000000001 [dLambda 0.050000000000000044]
TCL: Setting parameter firsttimestep to 0
TCL: Setting parameter alchLambda to 0.7000000000000001
Info: NONBONDED TABLE R-SQUARED SPACING: 0.0625
Info: NONBONDED TABLE SIZE: 705 POINTS
TCL: Setting parameter alchLambda2 to 0.7500000000000001
Info: NONBONDED TABLE R-SQUARED SPACING: 0.0625
Info: NONBONDED TABLE SIZE: 705 POINTS
TCL: Running for 1500000 steps
ETITLE: TS BOND ANGLE DIHED IMPRP ELECT VDW BOUNDARY MISC KINETIC TOTAL TEMP POTENTIAL TOTALAVG TEMPAVG PRESSURE GPRESSURE VOLUME PRESSAVG GPRESSAVG
ENERGY: 0 1.1857 12.8655 4.4999 0.0000 -10722.6379 1472.7412 0.0000 0.0000 1771.7531 -7459.5926 301.2117 -9231.3457 -7459.5926 301.2117 -84.9281 -15.6719 30705.9349 -84.9281 -15.6719
ENERGY: 300000 1.5183 10.0304 4.8108 0.0000 -10698.8349 1513.6237 0.0000 0.0000 1729.7637 -7439.0879 294.0732 -9168.8517 -7480.1657 298.4481 790.6452 823.4747 30269.4708 298.4217 350.6188
ENERGY: 600000 2.7918 7.6098 3.6845 0.0000 -10625.5061 1428.9818 0.0000 0.0000 1765.9882 -7416.4499 300.2317 -9182.4381 -7468.7250 300.0156 212.6905 250.1397 30230.4874 230.8557 302.8950
ENERGY: 900000 0.6886 9.8389 3.2178 0.0000 -10550.2681 1401.6543 0.0000 0.0000 1738.5745 -7396.2940 295.5711 -9134.8685 -7451.6755 299.7048 -238.0765 -158.4087 30851.6398 199.0841 269.8385
ENERGY: 1200000 2.2052 9.5075 4.2415 0.0000 -10701.9830 1474.3820 0.0000 0.0000 1774.3052 -7437.3417 301.6456 -9211.6468 -7448.6867 300.2906 124.2266 283.1753 30441.8758 81.1147 164.1979
ENERGY: 1500000 2.6202 23.8324 4.3734 0.0000 -10707.2785 1454.5491 0.0000 0.0000 1699.7523 -7522.1511 288.9710 -9221.9034 -7461.4742 298.4640 130.6270 176.5458 30251.9556 12.9105 87.1152
TCL: Running FEP window  16: Lambda1 0.7500000000000001 Lambda2 0.8000000000000002 [dLambda 0.050000000000000044]
TCL: Setting parameter firsttimestep to 0
TCL: Setting parameter alchLambda to 0.7500000000000001
Info: NONBONDED TABLE R-SQUARED SPACING: 0.0625
Info: NONBONDED TABLE SIZE: 705 POINTS
TCL: Setting parameter alchLambda2 to 0.8000000000000002
Info: NONBONDED TABLE R-SQUARED SPACING: 0.0625
Info: NONBONDED TABLE SIZE: 705 POINTS
TCL: Running for 1500000 steps
ETITLE: TS BOND ANGLE DIHED IMPRP ELECT VDW BOUNDARY MISC KINETIC TOTAL TEMP POTENTIAL TOTALAVG TEMPAVG PRESSURE GPRESSURE VOLUME PRESSAVG GPRESSAVG
ENERGY: 0 2.6202 23.8324 4.3734 0.0000 -10707.9274 1454.6041 0.0000 0.0000 1698.8705 -7523.6269 288.8211 -9222.4973 -7523.6269 288.8211 107.9925 185.4248 30251.9556 107.9925 185.4248
ENERGY: 300000 1.4734 11.2026 5.0133 0.0000 -10639.0270 1405.4296 0.0000 0.0000 1761.2349 -7454.6732 299.4236 -9215.9081 -7484.5837 296.1486 -99.3554 -61.8230 30484.5523 229.1644 294.1579
ENERGY: 600000 5.1397 10.9005 3.3442 0.0000 -10604.8927 1383.3517 0.0000 0.0000 1785.9228 -7416.2338 303.6207 -9202.1566 -7418.0678 300.3141 -437.6920 -377.7669 30346.8976 79.3542 148.6785
ENERGY: 900000 1.0363 9.9826 3.4128 0.0000 -10553.8617 1294.0668 0.0000 0.0000 1742.3029 -7503.0604 296.2050 -9245.3633 -7417.2259 299.1978 -1489.7466 -1470.9774 31162.1902 -87.8138 -19.3413
ENERGY: 1200000 2.4225 8.3124 4.7135 0.0000 -10742.6652 1465.0446 0.0000 0.0000 1744.6819 -7517.4904 296.6094 -9262.1722 -7431.9833 298.8284 8.2892 107.4836 30128.4292 29.6191 100.3397
ENERGY: 1500000 0.5820 10.7397 5.0657 0.0000 -10683.4688 1473.0009 0.0000 0.0000 1727.9768 -7466.1038 293.7694 -9194.0806 -7430.3447 299.7132 507.1864 511.2985 30177.1653 63.0317 127.4176
TCL: Running FEP window  17: Lambda1 0.8000000000000002 Lambda2 0.8500000000000002 [dLambda 0.050000000000000044]
TCL: Setting parameter firsttimestep to 0
TCL: Setting parameter alchLambda to 0.8000000000000002
Info: NONBONDED TABLE R-SQUARED SPACING: 0.0625
Info: NONBONDED TABLE SIZE: 705 POINTS
TCL: Setting parameter alchLambda2 to 0.8500000000000002
Info: NONBONDED TABLE R-SQUARED SPACING: 0.0625
Info: NONBONDED TABLE SIZE: 705 POINTS
TCL: Running for 1500000 steps
ETITLE: TS BOND ANGLE DIHED IMPRP ELECT VDW BOUNDARY MISC KINETIC TOTAL TEMP POTENTIAL TOTALAVG TEMPAVG PRESSURE GPRESSURE VOLUME PRESSAVG GPRESSAVG
ENERGY: 0 0.5820 10.7397 5.0657 0.0000 -10684.8009 1473.0990 0.0000 0.0000 1727.0505 -7468.2640 293.6119 -9195.3146 -7468.2640 293.6119 431.6715 519.7506 30177.1653 431.6715 519.7506
ENERGY: 300000 2.0462 14.7044 5.5957 0.0000 -10666.7179 1469.8226 0.0000 0.0000 1745.8183 -7428.7307 296.8026 -9174.5490 -7434.7802 298.8978 203.4871 208.5005 30501.7502 236.3217 291.7065
ENERGY: 600000 1.8875 11.8849 3.2398 0.0000 -10659.8806 1445.7358 0.0000 0.0000 1807.4644 -7389.6681 307.2829 -9197.1325 -7428.2563 300.5900 194.5886 220.9040 30422.1742 86.8666 144.7743
ENERGY: 900000 0.8234 12.1562 3.9798 0.0000 -10534.7047 1346.1033 0.0000 0.0000 1735.3603 -7436.2817 295.0247 -9171.6419 -7431.8735 300.6520 -545.6306 -525.3466 30672.0331 -10.8401 46.8700
ENERGY: 1200000 0.8407 9.5406 4.6520 0.0000 -10662.3055 1475.2990 0.0000 0.0000 1778.7442 -7393.2291 302.4003 -9171.9733 -7445.7206 299.9909 475.5816 498.1287 30666.9321 51.4183 108.3587
ENERGY: 1500000 3.6343 12.9538 3.3757 0.0000 -10683.7129 1478.2983 0.0000 0.0000 1739.9922 -7445.4586 295.8121 -9185.4508 -7442.6565 300.5641 203.8939 354.0796 30693.3658 70.0103 134.2557
TCL: Running FEP window  18: Lambda1 0.8500000000000002 Lambda2 0.9000000000000002 [dLambda 0.050000000000000044]
TCL: Setting parameter firsttimestep to 0
TCL: Setting parameter alchLambda to 0.8500000000000002
Info: NONBONDED TABLE R-SQUARED SPACING: 0.0625
Info: NONBONDED TABLE SIZE: 705 POINTS
TCL: Setting parameter alchLambda2 to 0.9000000000000002
Info: NONBONDED TABLE R-SQUARED SPACING: 0.0625
Info: NONBONDED TABLE SIZE: 705 POINTS
TCL: Running for 1500000 steps
ETITLE: TS BOND ANGLE DIHED IMPRP ELECT VDW BOUNDARY MISC KINETIC TOTAL TEMP POTENTIAL TOTALAVG TEMPAVG PRESSURE GPRESSURE VOLUME PRESSAVG GPRESSAVG
ENERGY: 0 3.6343 12.9538 3.3757 0.0000 -10684.6012 1478.7214 0.0000 0.0000 1739.1166 -7446.7994 295.6633 -9185.9159 -7446.7994 295.6633 275.3720 368.7348 30693.3658 275.3720 368.7348
ENERGY: 300000 1.0358 8.5007 3.2346 0.0000 -10595.0607 1353.2939 0.0000 0.0000 1761.0066 -7467.9893 299.3847 -9228.9959 -7443.8671 297.6178 -667.1467 -666.1796 30614.1207 48.5150 120.0478
ENERGY: 600000 4.7794 10.8326 5.1017 0.0000 -10668.5446 1390.5643 0.0000 0.0000 1795.7381 -7461.5284 305.2894 -9257.2666 -7467.2696 297.2093 -522.7077 -457.1891 30568.2847 -36.8324 30.6767
ENERGY: 900000 0.6501 7.8744 7.0829 0.0000 -10702.1445 1450.4333 0.0000 0.0000 1741.0482 -7495.0556 295.9917 -9236.1039 -7470.9253 297.1800 52.2334 161.9992 30372.4090 -45.2058 23.6838
ENERGY: 1200000 0.7568 9.8503 3.4971 0.0000 -10657.8965 1430.6835 0.0000 0.0000 1801.6604 -7411.4484 306.2962 -9213.1088 -7474.9197 297.4365 422.7570 443.6185 29860.3089 94.1215 158.4756
ENERGY: 1500000 2.1986 13.2074 4.3288 0.0000 -10575.5358 1371.7125 0.0000 0.0000 1768.2801 -7415.8084 300.6213 -9184.0885 -7476.2046 297.5025 -643.3969 -602.9012 30757.3189 19.3562 83.9721
TCL: Running FEP window  19: Lambda1 0.9000000000000002 Lambda2 0.9500000000000003 [dLambda 0.050000000000000044]
TCL: Setting parameter firsttimestep to 0
TCL: Setting parameter alchLambda to 0.9000000000000002
Info: NONBONDED TABLE R-SQUARED SPACING: 0.0625
Info: NONBONDED TABLE SIZE: 705 POINTS
TCL: Setting parameter alchLambda2 to 0.9500000000000003
Info: NONBONDED TABLE R-SQUARED SPACING: 0.0625
Info: NONBONDED TABLE SIZE: 705 POINTS
TCL: Running for 1500000 steps
ETITLE: TS BOND ANGLE DIHED IMPRP ELECT VDW BOUNDARY MISC KINETIC TOTAL TEMP POTENTIAL TOTALAVG TEMPAVG PRESSURE GPRESSURE VOLUME PRESSAVG GPRESSAVG
ENERGY: 0 2.1986 13.2074 4.3288 0.0000 -10576.7876 1372.1080 0.0000 0.0000 1767.4300 -7417.5148 300.4768 -9184.9448 -7417.5148 300.4768 -673.4456 -591.5498 30757.3189 -673.4456 -591.5498
ENERGY: 300000 3.4986 12.8923 3.9137 0.0000 -10556.2448 1376.4027 0.0000 0.0000 1801.9599 -7357.5776 306.3471 -9159.5375 -7396.5354 301.8845 -159.5617 -75.7976 30442.3970 -282.2471 -231.4808
ENERGY: 600000 2.3347 12.4042 3.8505 0.0000 -10547.5791 1401.9801 0.0000 0.0000 1832.7296 -7294.2799 311.5782 -9127.0095 -7402.8196 303.7608 116.3191 179.1472 30405.8398 -114.6585 -62.7467
ENERGY: 900000 2.8034 13.1233 3.7014 0.0000 -10590.3180 1332.7368 0.0000 0.0000 1803.9071 -7434.0462 306.6782 -9237.9532 -7420.4731 304.2338 -659.6483 -581.0414 30030.0452 -123.9185 -65.7269
ENERGY: 1200000 1.7464 12.8444 2.5763 0.0000 -10711.4642 1478.5874 0.0000 0.0000 1752.1448 -7463.5649 297.8782 -9215.7097 -7436.1380 302.7328 291.2036 335.2503 30421.6109 -65.3331 -5.3796
ENERGY: 1500000 1.7414 10.3285 3.9807 0.0000 -10492.9914 1302.5016 0.0000 0.0000 1776.5333 -7397.9059 302.0244 -9174.4392 -7436.0664 302.1583 -1011.5078 -974.6801 30855.1457 -68.7706 -9.5558
TCL: Running FEP window  20: Lambda1 0.9500000000000003 Lambda2 1.0    [dLambda 0.04999999999999971]
TCL: Setting parameter firsttimestep to 0
TCL: Setting parameter alchLambda to 0.9500000000000003
Info: NONBONDED TABLE R-SQUARED SPACING: 0.0625
Info: NONBONDED TABLE SIZE: 705 POINTS
TCL: Setting parameter alchLambda2 to 1.0
Info: NONBONDED TABLE R-SQUARED SPACING: 0.0625
Info: NONBONDED TABLE SIZE: 705 POINTS
TCL: Running for 1500000 steps
ETITLE: TS BOND ANGLE DIHED IMPRP ELECT VDW BOUNDARY MISC KINETIC TOTAL TEMP POTENTIAL TOTALAVG TEMPAVG PRESSURE GPRESSURE VOLUME PRESSAVG GPRESSAVG
ENERGY: 0 1.7414 10.3285 3.9807 0.0000 -10494.0784 1302.6923 0.0000 0.0000 1775.6685 -7399.6671 301.8774 -9175.3355 -7399.6671 301.8774 -1056.9529 -964.9734 30855.1457 -1056.9529 -964.9734
ENERGY: 300000 1.2110 12.0497 6.1523 0.0000 -10712.1246 1449.1462 0.0000 0.0000 1843.1448 -7400.4206 313.3489 -9243.5654 -7437.6205 299.7802 445.3038 508.1723 30044.6245 -234.7474 -166.6227
ENERGY: 600000 0.8976 7.0969 3.6399 0.0000 -10742.2883 1386.1424 0.0000 0.0000 1752.1795 -7592.3321 297.8841 -9344.5116 -7465.3592 298.8599 -476.9289 -443.5296 30293.0656 -425.7830 -370.5930
ENERGY: 900000 1.1012 16.7670 5.5415 0.0000 -10568.8386 1383.3051 0.0000 0.0000 1786.3319 -7375.7919 303.6902 -9162.1238 -7464.5969 298.1344 -294.5650 -260.2768 30803.7151 -328.9744 -276.5674
ENERGY: 1200000 3.1869 10.5638 2.6053 0.0000 -10619.3598 1423.6196 0.0000 0.0000 1765.8824 -7413.5020 300.2137 -9179.3843 -7449.0331 299.8932 147.2301 172.6244 30284.6506 -167.4552 -113.2529
ENERGY: 1500000 2.5743 14.3806 2.5084 0.0000 -10731.2734 1475.9428 0.0000 0.0000 1785.0542 -7450.8130 303.4730 -9235.8672 -7440.1618 299.9365 373.7806 427.2226 30213.3357 -103.0166 -52.6904
TCL: Exiting due to exit command.
