Info: SIMULATION PARAMETERS:
Info: TIMESTEP               2
Info: NUMBER OF STEPS        0
Info: STEPS PER CYCLE        10
Info: PERIODIC CELL BASIS 1  31.792 0 0
Info: PERIODIC CELL BASIS 2  0 28.5143 0
Info: PERIODIC CELL BASIS 3  0 0 33.0688
Info: PERIODIC CELL CENTER   0 0 0
Info: WRAPPING WATERS AROUND PERIODIC BOUNDARIES ON OUTPUT.
Info: WRAPPING ALL CLUSTERS AROUND PERIODIC BOUNDARIES ON OUTPUT.
Info: FIRST LDB TIMESTEP     50
Info: LAST LDB TIMESTEP     -1
Info: HOM BACKGROUND SCALING 1
Info: PME BACKGROUND SCALING 1
Info: MIN ATOMS PER PATCH    40
Info: EMPTY PATCH LOAD       40 ATOMS
Info: VELOCITY FILE          mobley_3047364_equil.vel
Info: CENTER OF MASS MOVING INITIALLY? NO
Info: DIELECTRIC             1
Info: EXCLUDE                SCALED ONE-FOUR
Info: 1-4 ELECTROSTATICS SCALED BY 0.833333
Info: MODIFIED 1-4 VDW PARAMETERS WILL BE USED
Info: DCD FILENAME           mobley_3047364_prod.dcd
Info: DCD FREQUENCY          100000
Info: DCD FIRST STEP         100000
Info: DCD FILE WILL CONTAIN UNIT CELL DATA
Info: XST FILENAME           mobley_3047364_prod.xst
Info: XST FREQUENCY          100000
Info: NO VELOCITY DCD OUTPUT
Info: NO FORCE DCD OUTPUT
Info: OUTPUT FILENAME        mobley_3047364_prod
Info: BINARY OUTPUT FILES WILL BE USED
Info: RESTART FILENAME       mobley_3047364_prod.restart
Info: RESTART FREQUENCY      100000
Info: BINARY RESTART FILES WILL BE USED
Info: CUTOFF                 9
Info: PAIRLIST DISTANCE      11
Info: PAIRLIST SHRINK RATE   0.01
Info: PAIRLIST GROW RATE     0.01
Info: PAIRLIST TRIGGER       0.3
Info: PAIRLISTS PER CYCLE    2
Info: PAIRLISTS ENABLED
Info: MARGIN                 2
Info: HYDROGEN GROUP CUTOFF  2.5
Info: PATCH DIMENSION        15.5
Info: ENERGY OUTPUT STEPS    100000
Info: ENERGY EVALUATION STEPS    100000
Info: OUTPUT ENERGY PRECISION 4
Info: CROSSTERM ENERGY INCLUDED IN DIHEDRAL
Info: TIMING OUTPUT STEPS    1000000
Info: PRESSURE OUTPUT STEPS  100000
Info: ALCHEMICAL FEP ON
Info: FEP CURRENT LAMBDA VALUE     0
Info: FEP COMPARISON LAMBDA VALUE  0.05
Info: FEP INTRA-ALCHEMICAL NON-BONDED INTERACTIONS WILL BE RETAINED
Info: FEP INTRA-ALCHEMICAL BONDED INTERACTIONS WILL BE RETAINED
Info: FEP VDW SHIFTING COEFFICIENT 5
Info: FEP ELEC. ACTIVE FOR ANNIHILATED PARTICLES BETWEEN LAMBDA = 0 AND LAMBDA = 0.5
Info: FEP ELEC. ACTIVE FOR EXNIHILATED PARTICLES BETWEEN LAMBDA = 0.5 AND LAMBDA = 1
Info: FEP VDW ACTIVE FOR ANNIHILATED PARTICLES BETWEEN LAMBDA = 0 AND LAMBDA = 1
Info: FEP VDW ACTIVE FOR EXNIHILATED PARTICLES BETWEEN LAMBDA = 0 AND LAMBDA = 1
Info: FEP BOND ACTIVE FOR ANNIHILATED PARTICLES BETWEEN LAMBDA = 1 AND LAMBDA = 1
Info: FEP BOND ACTIVE FOR EXNIHILATED PARTICLES BETWEEN LAMBDA = 0 AND LAMBDA = 0
Info: LANGEVIN DYNAMICS ACTIVE
Info: LANGEVIN TEMPERATURE   300
Info: LANGEVIN USING BBK INTEGRATOR
Info: LANGEVIN DAMPING COEFFICIENT IS 1 INVERSE PS
Info: LANGEVIN DYNAMICS APPLIED TO HYDROGENS
Info: LANGEVIN PISTON PRESSURE CONTROL ACTIVE
Info:        TARGET PRESSURE IS 1.01325 BAR
Info:     OSCILLATION PERIOD IS 50 FS
Info:             DECAY TIME IS 25 FS
Info:     PISTON TEMPERATURE IS 300 K
Info:       PRESSURE CONTROL IS GROUP-BASED
Info:    INITIAL STRAIN RATE IS -9.76761e-05 -9.76761e-05 -9.76761e-05
Info:       CELL FLUCTUATION IS ISOTROPIC
Info: PARTICLE MESH EWALD (PME) ACTIVE
Info: PME TOLERANCE               1e-06
Info: PME EWALD COEFFICIENT       0.348832
Info: PME INTERPOLATION ORDER     4
Info: PME GRID DIMENSIONS         32 32 36
Info: PME MAXIMUM GRID SPACING    1
Info: PME CALCULATION WILL BE PERFORMED ON GPU
Info: FULL ELECTROSTATIC EVALUATION FREQUENCY      2
Info: USING VERLET I (r-RESPA) MTS SCHEME.
Info: C1 SPLITTING OF LONG RANGE ELECTROSTATICS
Info: PLACING ATOMS IN PATCHES BY HYDROGEN GROUPS
Info: RIGID BONDS TO HYDROGEN : ALL
Info:         ERROR TOLERANCE : 1e-08
Info:          MAX ITERATIONS : 100
Info: RIGID WATER USING SETTLE ALGORITHM
Info: RANDOM NUMBER SEED     1744045758
Info: USE HYDROGEN BONDS?    NO
Info: Using AMBER format force field!
Info: AMBER PARM FILE        mobley_3047364.prmtop
Info: COORDINATE PDB         mobley_3047364.pdb
Info: Exclusions will be read from PARM file!
Info: SCNB (VDW SCALING)     2
Info: USING ARITHMETIC MEAN TO COMBINE L-J SIGMA PARAMETERS
Info: BINARY COORDINATES     mobley_3047364_equil.coor
Info: SUMMARY OF PARAMETERS:
Info: 11 BONDS
Info: 16 ANGLES
Info:   16 HARMONIC
Info:   0 COSINE-BASED
Info: 8 DIHEDRAL
Info: 0 IMPROPER
Info: 0 CROSSTERM
Info: 0 VDW
Info: 45 VDW_PAIRS
Info: 0 NBTHOLE_PAIRS
Info: To read alchdata from file: mobley_3047364.pdb
Info: To read alchflag data from column: 5
Info: STRUCTURE SUMMARY:
Info: 2924 ATOMS
Info: 2924 BONDS
Info: 55 ANGLES
Info: 69 DIHEDRALS
Info: 0 IMPROPERS
Info: 0 CROSSTERMS
Info: 3040 EXCLUSIONS
Info: 2909 RIGID BONDS
Info: ALCH: 0 ATOMS TO DISAPPEAR IN FINAL STATE
Info: ALCH: 32 ATOMS TO APPEAR IN FINAL STATE
Info: 5863 DEGREES OF FREEDOM
Info: 979 HYDROGEN GROUPS
Info: 4 ATOMS IN LARGEST HYDROGEN GROUP
Info: 979 MIGRATION GROUPS
Info: 4 ATOMS IN LARGEST MIGRATION GROUP
Info: TOTAL MASS = 17594.8 amu
Info: TOTAL CHARGE = -1.11759e-07 e
Info: MASS DENSITY = 0.97464 g/cm^3
Info: ATOM DENSITY = 0.0975392 atoms/A^3
Info: ADDED 0 IMPLICIT EXCLUSIONS
Info: NONBONDED TABLE R-SQUARED SPACING: 0.0625
Info: NONBONDED TABLE SIZE: 705 POINTS
Info: REMOVING COM VELOCITY 0.0800436 -0.00325893 -0.211597
Info: Use 3D box decompostion in PME FFT.
Info: Updated CUDA force table with 4096 elements.
Info: Updated CUDA LJ table with 9 x 9 elements.
Info: Found 35 unique exclusion lists needing 128 bytes
TCL: Running for 1500000 steps
ETITLE: TS BOND ANGLE DIHED IMPRP ELECT VDW BOUNDARY MISC KINETIC TOTAL TEMP POTENTIAL TOTALAVG TEMPAVG PRESSURE GPRESSURE VOLUME PRESSAVG GPRESSAVG
ENERGY: 0 5.5093 14.5904 2.9523 0.0000 -10916.7324 1414.2543 0.0000 0.0000 1787.8721 -7691.5540 306.9071 -9479.4261 -7691.5540 306.9071 -40.5393 36.4765 29977.6972 -40.5393 36.4765
ENERGY: 300000 8.3091 12.2056 8.3918 0.0000 -10980.6541 1414.3332 0.0000 0.0000 1820.8809 -7716.5334 312.5734 -9537.4143 -7737.0898 305.6726 212.0501 235.4581 29734.5491 143.3344 199.5339
ENERGY: 600000 4.6799 19.5337 5.2411 0.0000 -10900.2616 1335.0468 0.0000 0.0000 1775.1613 -7760.5989 304.7252 -9535.7602 -7745.4526 304.5469 -1091.1339 -1053.1575 30088.8262 -5.2133 44.1160
ENERGY: 900000 8.9106 16.4073 4.4951 0.0000 -11018.5638 1344.1065 0.0000 0.0000 1761.5527 -7883.0916 302.3891 -9644.6443 -7771.6030 302.3792 -1053.3024 -997.8283 29521.9891 -68.6755 -21.0143
ENERGY: 1200000 8.0583 16.3882 4.6439 0.0000 -10881.0928 1323.6432 0.0000 0.0000 1761.6812 -7766.6781 302.4112 -9528.3593 -7767.6343 302.4961 -783.1808 -756.9436 29713.9798 -137.7782 -91.2321
ENERGY: 1500000 6.5111 14.3823 7.4263 0.0000 -11115.8853 1544.7879 0.0000 0.0000 1713.5364 -7829.2412 294.1466 -9542.7776 -7770.0478 301.7030 891.0378 926.1309 29339.3065 -36.7260 9.9739
TCL: Running FEP window   2: Lambda1 0.05   Lambda2 0.1    [dLambda 0.05  ]
TCL: Setting parameter firsttimestep to 0
TCL: Setting parameter alchLambda to 0.05
Info: NONBONDED TABLE R-SQUARED SPACING: 0.0625
Info: NONBONDED TABLE SIZE: 705 POINTS
TCL: Setting parameter alchLambda2 to 0.1
Info: NONBONDED TABLE R-SQUARED SPACING: 0.0625
Info: NONBONDED TABLE SIZE: 705 POINTS
TCL: Running for 1500000 steps
ETITLE: TS BOND ANGLE DIHED IMPRP ELECT VDW BOUNDARY MISC KINETIC TOTAL TEMP POTENTIAL TOTALAVG TEMPAVG PRESSURE GPRESSURE VOLUME PRESSAVG GPRESSAVG
ENERGY: 0 6.5111 14.3823 7.4263 0.0000 -11115.8863 1550.2380 0.0000 0.0000 1712.7062 -7824.6223 294.0041 -9537.3285 -7824.6223 294.0041 838.8877 941.5771 29339.3065 838.8877 941.5771
ENERGY: 300000 6.9846 18.7955 2.8476 0.0000 -10811.6371 1292.8878 0.0000 0.0000 1705.3635 -7784.7581 292.7436 -9490.1216 -7811.3279 293.7815 -1043.5708 -1017.9531 30334.6481 -65.5883 -1.1634
ENERGY: 600000 4.3970 23.1941 4.8773 0.0000 -11057.3859 1425.4022 0.0000 0.0000 1756.7275 -7842.7878 301.5608 -9599.5153 -7821.6603 293.8077 3.7075 105.2328 29416.4113 -206.8851 -128.3947
ENERGY: 900000 2.5698 20.0160 3.4031 0.0000 -10999.3339 1483.2176 0.0000 0.0000 1753.6983 -7736.4291 301.0408 -9490.1275 -7798.1708 295.8627 549.2285 696.3104 29576.4060 -67.4529 12.6254
ENERGY: 1200000 7.1957 27.6989 5.8745 0.0000 -10982.6228 1380.9295 0.0000 0.0000 1738.0181 -7822.9062 298.3491 -9560.9242 -7801.1888 297.0323 -600.5245 -510.9613 29658.9513 -122.7953 -45.9824
ENERGY: 1500000 5.9972 19.4026 7.0369 0.0000 -10904.3585 1350.8681 0.0000 0.0000 1706.2944 -7814.7593 292.9034 -9521.0537 -7799.7685 297.1323 -952.4891 -894.6557 29974.5307 -156.4632 -81.4181
TCL: Running FEP window   3: Lambda1 0.1    Lambda2 0.15000000000000002 [dLambda 0.05000000000000002]
TCL: Setting parameter firsttimestep to 0
TCL: Setting parameter alchLambda to 0.1
Info: NONBONDED TABLE R-SQUARED SPACING: 0.0625
Info: NONBONDED TABLE SIZE: 705 POINTS
TCL: Setting parameter alchLambda2 to 0.15000000000000002
Info: NONBONDED TABLE R-SQUARED SPACING: 0.0625
Info: NONBONDED TABLE SIZE: 705 POINTS
TCL: Running for 1500000 steps
ETITLE: TS BOND ANGLE DIHED IMPRP ELECT VDW BOUNDARY MISC KINETIC TOTAL TEMP POTENTIAL TOTALAVG TEMPAVG PRESSURE GPRESSURE VOLUME PRESSAVG GPRESSAVG
ENERGY: 0 5.9972 19.4026 7.0369 0.0000 -10904.3572 1354.7623 0.0000 0.0000 1705.3958 -7811.7624 292.7492 -9517.1581 -7811.7624 292.7492 -964.7871 -878.5414 29974.5307 -964.7871 -878.5414
ENERGY: 300000 6.3734 15.9526 10.3430 0.0000 -10934.3655 1444.8191 0.0000 0.0000 1677.9676 -7778.9098 288.0408 -9456.8774 -7798.5406 292.5434 327.9891 424.5966 29639.4004 -500.2631 -428.3364
ENERGY: 600000 7.7010 16.1484 4.3395 0.0000 -10971.7831 1374.1446 0.0000 0.0000 1728.3391 -7841.1106 296.6876 -9569.4497 -7771.1184 296.0876 -520.2281 -432.0740 29468.2179 -276.8619 -215.6040
ENERGY: 900000 7.0973 21.7426 3.2281 0.0000 -10893.5238 1338.6098 0.0000 0.0000 1757.1322 -7765.7139 301.6303 -9522.8461 -7774.5895 296.3361 -715.6780 -648.3291 29983.5174 -333.2258 -278.5874
ENERGY: 1200000 3.6665 20.5263 4.7962 0.0000 -10894.0693 1357.6207 0.0000 0.0000 1749.3021 -7758.1575 300.2862 -9507.4596 -7775.4212 297.5390 -626.5398 -560.2843 29974.5637 -391.0991 -344.3715
ENERGY: 1500000 4.8772 16.0325 7.5996 0.0000 -11120.5705 1478.6886 0.0000 0.0000 1671.4885 -7941.8841 286.9286 -9613.3726 -7792.2921 296.4195 55.2381 104.2727 29763.1615 -344.6068 -291.9593
TCL: Running FEP window   4: Lambda1 0.15000000000000002 Lambda2 0.2    [dLambda 0.04999999999999999]
TCL: Setting parameter firsttimestep to 0
TCL: Setting parameter alchLambda to 0.15000000000000002
Info: NONBONDED TABLE R-SQUARED SPACING: 0.0625
Info: NONBONDED TABLE SIZE: 705 POINTS
TCL: Setting parameter alchLambda2 to 0.2
Info: NONBONDED TABLE R-SQUARED SPACING: 0.0625
Info: NONBONDED TABLE SIZE: 705 POINTS
TCL: Running for 1500000 steps
ETITLE: TS BOND ANGLE DIHED IMPRP ELECT VDW BOUNDARY MISC KINETIC TOTAL TEMP POTENTIAL TOTALAVG TEMPAVG PRESSURE GPRESSURE VOLUME PRESSAVG GPRESSAVG
ENERGY: 0 4.8772 16.0325 7.5996 0.0000 -11120.5702 1480.1293 0.0000 0.0000 1670.6463 -7941.2852 286.7841 -9611.9315 -7941.2852 286.7841 35.3608 119.4939 29763.1615 35.3608 119.4939
ENERGY: 300000 7.8428 19.7019 5.2709 0.0000 -11000.1168 1439.2529 0.0000 0.0000 1736.6516 -7791.3967 298.1146 -9528.0483 -7834.6593 294.9611 141.0291 192.7453 29750.6922 10.1398 100.4366
ENERGY: 600000 7.5050 25.6586 5.9603 0.0000 -10880.5578 1362.7834 0.0000 0.0000 1720.6646 -7757.9859 295.3702 -9478.6505 -7815.7274 296.7393 -611.3696 -465.9829 29974.5791 -166.4319 -70.9117
ENERGY: 900000 4.0053 16.2941 6.4363 0.0000 -11122.6710 1567.9641 0.0000 0.0000 1712.0177 -7815.9535 293.8859 -9527.9712 -7802.6272 297.5227 1340.2047 1416.6719 29398.9957 -37.6097 52.1908
ENERGY: 1200000 9.7218 17.6069 6.4838 0.0000 -11093.3877 1463.6891 0.0000 0.0000 1716.2403 -7879.6458 294.6107 -9595.8861 -7811.1329 297.3512 323.9841 414.2400 29680.6560 -13.6789 62.1545
ENERGY: 1500000 11.6073 21.5820 5.4163 0.0000 -10886.2977 1300.2949 0.0000 0.0000 1868.8409 -7678.5564 320.8062 -9547.3973 -7811.6800 299.1535 -951.5486 -898.1964 30014.7646 -75.6970 -3.3955
TCL: Running FEP window   5: Lambda1 0.2    Lambda2 0.25   [dLambda 0.04999999999999999]
TCL: Setting parameter firsttimestep to 0
TCL: Setting parameter alchLambda to 0.2
Info: NONBONDED TABLE R-SQUARED SPACING: 0.0625
Info: NONBONDED TABLE SIZE: 705 POINTS
TCL: Setting parameter alchLambda2 to 0.25
Info: NONBONDED TABLE R-SQUARED SPACING: 0.0625
Info: NONBONDED TABLE SIZE: 705 POINTS
TCL: Running for 1500000 steps
ETITLE: TS BOND ANGLE DIHED IMPRP ELECT VDW BOUNDARY MISC KINETIC TOTAL TEMP POTENTIAL TOTALAVG TEMPAVG PRESSURE GPRESSURE VOLUME PRESSAVG GPRESSAVG
ENERGY: 0 11.6073 21.5820 5.4163 0.0000 -10886.2987 1301.8215 0.0000 0.0000 1867.9628 -7677.9088 320.6555 -9545.8716 -7677.9088 320.6555 -957.3445 -882.4658 30014.7646 -957.3445 -882.4658
ENERGY: 300000 2.6835 13.6048 4.1372 0.0000 -10979.0417 1383.0737 0.0000 0.0000 1727.0348 -7848.5077 296.4637 -9575.5425 -7759.5228 302.6521 -818.0081 -732.7419 30135.9980 -625.7436 -558.5380
ENERGY: 600000 6.5125 24.3519 5.8106 0.0000 -10927.7539 1380.0016 0.0000 0.0000 1784.0745 -7727.0028 306.2552 -9511.0773 -7741.5650 303.3475 -243.4476 -192.2074 29618.3231 -261.1860 -179.9935
ENERGY: 900000 5.1526 18.8062 3.4313 0.0000 -10872.5240 1380.0065 0.0000 0.0000 1758.0424 -7707.0850 301.7865 -9465.1273 -7743.4713 302.7921 -417.4876 -321.1074 29926.8359 -188.2780 -116.7931
ENERGY: 1200000 9.9424 21.0344 3.7615 0.0000 -11024.5417 1434.1075 0.0000 0.0000 1748.1939 -7807.5019 300.0959 -9555.6958 -7754.6223 302.1517 139.5546 179.3740 29785.9005 -165.8400 -96.4730
ENERGY: 1500000 9.0652 22.1855 7.2401 0.0000 -10885.4944 1402.1766 0.0000 0.0000 1740.1563 -7704.6706 298.7162 -9444.8269 -7750.8082 302.0748 44.3517 2.0028 30291.1628 -176.5304 -114.9970
TCL: Running FEP window   6: Lambda1 0.25   Lambda2 0.3    [dLambda 0.04999999999999999]
TCL: Setting parameter firsttimestep to 0
TCL: Setting parameter alchLambda to 0.25
Info: NONBONDED TABLE R-SQUARED SPACING: 0.0625
Info: NONBONDED TABLE SIZE: 705 POINTS
TCL: Setting parameter alchLambda2 to 0.3
Info: NONBONDED TABLE R-SQUARED SPACING: 0.0625
Info: NONBONDED TABLE SIZE: 705 POINTS
TCL: Running for 1500000 steps
ETITLE: TS BOND ANGLE DIHED IMPRP ELECT VDW BOUNDARY MISC KINETIC TOTAL TEMP POTENTIAL TOTALAVG TEMPAVG PRESSURE GPRESSURE VOLUME PRESSAVG GPRESSAVG
ENERGY: 0 9.0652 22.1855 7.2401 0.0000 -10885.4947 1401.9355 0.0000 0.0000 1739.2825 -7705.7859 298.5662 -9445.0684 -7705.7859 298.5662 -69.6009 5.2109 30291.1628 -69.6009 5.2109
ENERGY: 300000 9.8684 15.7569 10.6159 0.0000 -10943.1506 1394.2590 0.0000 0.0000 1790.2299 -7722.4206 307.3118 -9512.6505 -7723.2811 301.7978 -332.3702 -217.2202 30158.5326 -139.1465 -77.2260
ENERGY: 600000 7.5790 17.6722 2.0639 0.0000 -11027.8983 1406.6167 0.0000 0.0000 1683.8139 -7910.1526 289.0444 -9593.9665 -7761.2870 299.5034 -343.2836 -286.6272 29694.0333 -252.5411 -195.2538
ENERGY: 900000 8.5152 20.7991 9.9802 0.0000 -11031.2163 1413.7908 0.0000 0.0000 1772.0356 -7806.0953 304.1886 -9578.1309 -7770.0293 300.2632 -99.5205 26.9560 29684.0344 -81.3750 -14.8729
ENERGY: 1200000 9.8949 15.0696 4.5582 0.0000 -11200.9887 1537.2902 0.0000 0.0000 1717.1628 -7917.0130 294.7691 -9634.1758 -7784.6081 299.5383 823.5926 859.7671 29447.7407 -118.9594 -48.1396
ENERGY: 1500000 7.2281 18.7610 8.7594 0.0000 -10990.2398 1422.1213 0.0000 0.0000 1784.6459 -7748.7240 306.3533 -9533.3699 -7779.7038 300.4457 -53.0046 33.7723 30247.1019 -112.9187 -40.3855
TCL: Running FEP window   7: Lambda1 0.3    Lambda2 0.35   [dLambda 0.04999999999999999]
TCL: Setting parameter firsttimestep to 0
TCL: Setting parameter alchLambda to 0.3
Info: NONBONDED TABLE R-SQUARED SPACING: 0.0625
Info: NONBONDED TABLE SIZE: 705 POINTS
TCL: Setting parameter alchLambda2 to 0.35
Info: NONBONDED TABLE R-SQUARED SPACING: 0.0625
Info: NONBONDED TABLE SIZE: 705 POINTS
TCL: Running for 1500000 steps
ETITLE: TS BOND ANGLE DIHED IMPRP ELECT VDW BOUNDARY MISC KINETIC TOTAL TEMP POTENTIAL TOTALAVG TEMPAVG PRESSURE GPRESSURE VOLUME PRESSAVG GPRESSAVG
ENERGY: 0 7.2281 18.7610 8.7594 0.0000 -10990.2397 1423.6953 0.0000 0.0000 1783.7474 -7748.0484 306.1991 -9531.7958 -7748.0484 306.1991 -23.4301 53.5401 30247.1019 -23.4301 53.5401
ENERGY: 300000 3.7488 16.4127 5.2202 0.0000 -10974.3211 1440.3019 0.0000 0.0000 1748.8498 -7759.7878 300.2085 -9508.6376 -7757.2266 300.9612 -140.0555 -102.9345 30710.8176 -289.6108 -235.1400
ENERGY: 600000 6.2944 28.3362 6.0534 0.0000 -11160.0240 1498.3107 0.0000 0.0000 1776.9064 -7844.1229 305.0247 -9621.0294 -7768.8763 302.8666 561.1971 595.5961 29683.0770 -78.3043 -20.1995
ENERGY: 900000 4.4911 18.3971 2.1510 0.0000 -10995.8690 1431.4928 0.0000 0.0000 1767.3115 -7772.0255 303.3777 -9539.3371 -7766.5262 302.5065 223.0085 264.9351 29890.2904 73.3036 133.1905
ENERGY: 1200000 6.9118 15.9689 4.0727 0.0000 -11126.8044 1533.8124 0.0000 0.0000 1696.0334 -7870.0051 291.1420 -9566.0386 -7781.4583 300.9731 907.6759 977.6202 29337.0865 201.1236 262.9540
ENERGY: 1500000 3.6454 17.1593 5.0674 0.0000 -10898.0441 1379.7728 0.0000 0.0000 1753.9912 -7738.4082 301.0911 -9492.3993 -7776.7841 300.4873 -424.5666 -390.1230 29955.8813 131.3756 187.9294
TCL: Running FEP window   8: Lambda1 0.35   Lambda2 0.39999999999999997 [dLambda 0.04999999999999999]
TCL: Setting parameter firsttimestep to 0
TCL: Setting parameter alchLambda to 0.35
Info: NONBONDED TABLE R-SQUARED SPACING: 0.0625
Info: NONBONDED TABLE SIZE: 705 POINTS
TCL: Setting parameter alchLambda2 to 0.39999999999999997
Info: NONBONDED TABLE R-SQUARED SPACING: 0.0625
Info: NONBONDED TABLE SIZE: 705 POINTS
TCL: Running for 1500000 steps
ETITLE: TS BOND ANGLE DIHED IMPRP ELECT VDW BOUNDARY MISC KINETIC TOTAL TEMP POTENTIAL TOTALAVG TEMPAVG PRESSURE GPRESSURE VOLUME PRESSAVG GPRESSAVG
ENERGY: 0 3.6454 17.1593 5.0674 0.0000 -10898.0455 1380.7671 0.0000 0.0000 1753.1331 -7738.2732 300.9438 -9491.4063 -7738.2732 300.9438 -446.1504 -371.6476 29955.8813 -446.1504 -371.6476
ENERGY: 300000 12.3606 17.7511 7.1761 0.0000 -11001.9641 1375.5381 0.0000 0.0000 1737.7243 -7851.4140 298.2987 -9589.1382 -7795.3989 300.7026 -622.2027 -441.1113 30045.8889 -373.3569 -249.2803
ENERGY: 600000 5.3912 21.8842 10.3058 0.0000 -10954.6387 1408.7581 0.0000 0.0000 1745.8405 -7762.4590 299.6919 -9508.2995 -7781.1210 300.1317 -76.3118 -49.3847 29768.8192 -235.8823 -143.4496
ENERGY: 900000 6.7462 18.8891 5.7192 0.0000 -11022.0926 1447.9728 0.0000 0.0000 1718.4623 -7824.3030 294.9922 -9542.7653 -7785.0439 298.7951 123.8168 257.0658 30018.7504 -239.6626 -165.8246
ENERGY: 1200000 5.8548 14.5190 7.2408 0.0000 -11056.8789 1439.9283 0.0000 0.0000 1739.2207 -7850.1154 298.5556 -9589.3361 -7799.2762 298.0063 -241.3112 -136.6001 29983.0825 -181.2024 -104.3689
ENERGY: 1500000 6.6278 15.5918 4.6034 0.0000 -11091.2452 1517.7741 0.0000 0.0000 1745.5695 -7801.0786 299.6454 -9546.6481 -7789.7820 298.7908 633.7648 720.0134 29836.7619 -39.2157 31.7753
TCL: Running FEP window   9: Lambda1 0.39999999999999997 Lambda2 0.44999999999999996 [dLambda 0.04999999999999999]
TCL: Setting parameter firsttimestep to 0
TCL: Setting parameter alchLambda to 0.39999999999999997
Info: NONBONDED TABLE R-SQUARED SPACING: 0.0625
Info: NONBONDED TABLE SIZE: 705 POINTS
TCL: Setting parameter alchLambda2 to 0.44999999999999996
Info: NONBONDED TABLE R-SQUARED SPACING: 0.0625
Info: NONBONDED TABLE SIZE: 705 POINTS
TCL: Running for 1500000 steps
ETITLE: TS BOND ANGLE DIHED IMPRP ELECT VDW BOUNDARY MISC KINETIC TOTAL TEMP POTENTIAL TOTALAVG TEMPAVG PRESSURE GPRESSURE VOLUME PRESSAVG GPRESSAVG
ENERGY: 0 6.6278 15.5918 4.6034 0.0000 -11091.2458 1518.0727 0.0000 0.0000 1744.6820 -7801.6680 299.4931 -9546.3501 -7801.6680 299.4931 646.4828 732.6696 29836.7619 646.4828 732.6696
ENERGY: 300000 8.5319 25.3371 6.7931 0.0000 -10978.1191 1390.8247 0.0000 0.0000 1759.2557 -7787.3767 301.9948 -9546.6324 -7771.3147 301.4831 59.1143 62.6131 29767.6157 176.8674 226.8466
ENERGY: 600000 2.6795 13.6585 5.2477 0.0000 -10807.0682 1289.0313 0.0000 0.0000 1718.0242 -7778.4270 294.9170 -9496.4512 -7774.3745 300.7254 -1018.8944 -1010.4074 30082.3504 1.7259 41.6593
ENERGY: 900000 5.4110 18.7815 4.5490 0.0000 -11085.2124 1471.1498 0.0000 0.0000 1750.0354 -7835.2856 300.4120 -9585.3210 -7792.0404 300.7669 448.2095 532.1287 29426.3624 66.4801 107.8506
ENERGY: 1200000 7.5993 22.6531 4.9754 0.0000 -11046.2174 1441.4231 0.0000 0.0000 1713.9955 -7855.5710 294.2254 -9569.5665 -7814.8009 298.8702 375.3861 416.8920 29383.6134 18.6933 68.5716
ENERGY: 1500000 6.8236 20.6246 5.6841 0.0000 -10957.6026 1394.5704 0.0000 0.0000 1717.6019 -7812.2981 294.8445 -9529.9000 -7807.3971 299.4930 -398.3513 -339.4080 30587.0241 24.4053 74.4436
TCL: Running FEP window  10: Lambda1 0.44999999999999996 Lambda2 0.49999999999999994 [dLambda 0.04999999999999999]
TCL: Setting parameter firsttimestep to 0
TCL: Setting parameter alchLambda to 0.44999999999999996
Info: NONBONDED TABLE R-SQUARED SPACING: 0.0625
Info: NONBONDED TABLE SIZE: 705 POINTS
TCL: Setting parameter alchLambda2 to 0.49999999999999994
Info: NONBONDED TABLE R-SQUARED SPACING: 0.0625
Info: NONBONDED TABLE SIZE: 705 POINTS
TCL: Running for 1500000 steps
ETITLE: TS BOND ANGLE DIHED IMPRP ELECT VDW BOUNDARY MISC KINETIC TOTAL TEMP POTENTIAL TOTALAVG TEMPAVG PRESSURE GPRESSURE VOLUME PRESSAVG GPRESSAVG
ENERGY: 0 6.8235 20.6246 5.6841 0.0000 -10957.6032 1394.1391 0.0000 0.0000 1716.7198 -7813.6122 294.6931 -9530.3319 -7813.6122 294.6931 -406.9286 -335.2838 30587.0241 -406.9286 -335.2838
ENERGY: 300000 9.3537 29.3154 5.6845 0.0000 -10968.6471 1389.5551 0.0000 0.0000 1725.0663 -7809.6721 296.1258 -9534.7384 -7774.9382 299.1437 -385.5275 -244.6918 29703.6348 -298.5874 -219.5642
ENERGY: 600000 7.5512 22.0930 3.5876 0.0000 -10980.1411 1406.9988 0.0000 0.0000 1791.5510 -7748.3596 307.5386 -9539.9106 -7774.5650 300.2907 39.1659 85.4263 29599.9374 -268.3098 -207.6375
ENERGY: 900000 8.2260 20.2922 3.1250 0.0000 -11091.6083 1451.0129 0.0000 0.0000 1734.0109 -7874.9413 297.6613 -9608.9522 -7777.8835 300.7321 169.4275 182.9086 30051.7131 -161.0334 -104.5371
ENERGY: 1200000 8.1907 13.9150 4.3815 0.0000 -10967.5273 1416.5134 0.0000 0.0000 1764.5777 -7759.9491 302.9084 -9524.5268 -7776.0150 299.4844 -72.6544 -14.7410 29864.5807 -145.0413 -82.4057
ENERGY: 1500000 6.8091 14.4233 2.9749 0.0000 -10953.9255 1382.7536 0.0000 0.0000 1719.0070 -7827.9575 295.0857 -9546.9645 -7778.0075 298.9573 -145.9652 -142.0110 29968.8168 -91.4856 -27.3898
TCL: Running FEP window  11: Lambda1 0.49999999999999994 Lambda2 0.5499999999999999 [dLambda 0.04999999999999999]
TCL: Setting parameter firsttimestep to 0
TCL: Setting parameter alchLambda to 0.49999999999999994
Info: NONBONDED TABLE R-SQUARED SPACING: 0.0625
Info: NONBONDED TABLE SIZE: 705 POINTS
TCL: Setting parameter alchLambda2 to 0.5499999999999999
Info: NONBONDED TABLE R-SQUARED SPACING: 0.0625
Info: NONBONDED TABLE SIZE: 705 POINTS
TCL: Running for 1500000 steps
ETITLE: TS BOND ANGLE DIHED IMPRP ELECT VDW BOUNDARY MISC KINETIC TOTAL TEMP POTENTIAL TOTALAVG TEMPAVG PRESSURE GPRESSURE VOLUME PRESSAVG GPRESSAVG
ENERGY: 0 6.8091 14.4233 2.9749 0.0000 -10953.9261 1382.7577 0.0000 0.0000 1718.1074 -7828.8537 294.9313 -9546.9611 -7828.8537 294.9313 -191.2146 -127.7076 29968.8168 -191.2146 -127.7076
ENERGY: 300000 11.4650 19.7926 9.1493 0.0000 -10904.3164 1423.8555 0.0000 0.0000 1752.5243 -7687.5296 300.8393 -9440.0540 -7768.5096 303.4347 212.2705 172.7456 30127.7977 160.0600 200.2487
ENERGY: 600000 5.0940 15.8812 4.6751 0.0000 -10842.8032 1322.1048 0.0000 0.0000 1773.2781 -7721.7700 304.4019 -9495.0481 -7764.4080 302.3653 -822.1159 -763.2949 30160.1778 -70.3815 -22.7998
ENERGY: 900000 7.8414 19.6853 5.3783 0.0000 -10999.7163 1403.1270 0.0000 0.0000 1747.1155 -7816.5688 299.9108 -9563.6843 -7783.8436 301.2493 -373.4785 -264.7688 30084.2693 -173.6924 -115.7190
ENERGY: 1200000 7.9294 14.7245 3.5816 0.0000 -10962.3485 1440.8627 0.0000 0.0000 1739.8607 -7755.3895 298.6654 -9495.2502 -7776.5754 300.9125 76.9087 191.9272 29986.5918 -164.7789 -99.7581
ENERGY: 1500000 6.4623 22.4396 5.5212 0.0000 -11013.7986 1423.2392 0.0000 0.0000 1733.0140 -7823.1222 297.4901 -9556.1362 -7785.0973 300.2729 -275.1221 -216.1430 30247.2447 -212.7125 -146.8779
TCL: Running FEP window  12: Lambda1 0.5499999999999999 Lambda2 0.6    [dLambda 0.050000000000000044]
TCL: Setting parameter firsttimestep to 0
TCL: Setting parameter alchLambda to 0.5499999999999999
Info: NONBONDED TABLE R-SQUARED SPACING: 0.0625
Info: NONBONDED TABLE SIZE: 705 POINTS
TCL: Setting parameter alchLambda2 to 0.6
Info: NONBONDED TABLE R-SQUARED SPACING: 0.0625
Info: NONBONDED TABLE SIZE: 705 POINTS
TCL: Running for 1500000 steps
ETITLE: TS BOND ANGLE DIHED IMPRP ELECT VDW BOUNDARY MISC KINETIC TOTAL TEMP POTENTIAL TOTALAVG TEMPAVG PRESSURE GPRESSURE VOLUME PRESSAVG GPRESSAVG
ENERGY: 0 6.4623 22.4396 5.5212 0.0000 -11014.1376 1423.2493 0.0000 0.0000 1732.1322 -7824.3330 297.3388 -9556.4652 -7824.3330 297.3388 -255.9305 -203.3401 30247.2447 -255.9305 -203.3401
ENERGY: 300000 7.3898 15.3411 3.5664 0.0000 -10917.4205 1359.1936 0.0000 0.0000 1682.9494 -7848.9803 288.8960 -9531.9297 -7774.7970 297.2220 -662.3648 -585.2542 30548.6554 -156.8395 -118.3290
ENERGY: 600000 3.7544 17.7752 7.4836 0.0000 -10932.4470 1435.3379 0.0000 0.0000 1730.5161 -7737.5798 297.0613 -9468.0959 -7768.7962 297.6981 24.4338 98.1933 30032.6881 -89.0786 -39.5068
ENERGY: 900000 5.0959 13.5080 2.7871 0.0000 -11146.6570 1504.0853 0.0000 0.0000 1763.0558 -7858.1248 302.6471 -9621.1806 -7792.7377 297.7135 208.4262 356.2298 30167.7864 -68.5628 -10.3092
ENERGY: 1200000 3.7714 22.4954 5.1205 0.0000 -11103.1729 1439.7795 0.0000 0.0000 1742.4812 -7889.5249 299.1153 -9632.0061 -7800.0384 297.4971 13.7619 84.0067 29542.1183 -15.4247 43.8354
ENERGY: 1500000 8.5403 23.5240 6.1702 0.0000 -10905.0826 1420.0203 0.0000 0.0000 1726.6215 -7720.2063 296.3928 -9446.8278 -7785.4526 298.6213 146.9195 141.3368 30124.7678 47.1822 104.2033
TCL: Running FEP window  13: Lambda1 0.6    Lambda2 0.65   [dLambda 0.050000000000000044]
TCL: Setting parameter firsttimestep to 0
TCL: Setting parameter alchLambda to 0.6
Info: NONBONDED TABLE R-SQUARED SPACING: 0.0625
Info: NONBONDED TABLE SIZE: 705 POINTS
TCL: Setting parameter alchLambda2 to 0.65
Info: NONBONDED TABLE R-SQUARED SPACING: 0.0625
Info: NONBONDED TABLE SIZE: 705 POINTS
TCL: Running for 1500000 steps
ETITLE: TS BOND ANGLE DIHED IMPRP ELECT VDW BOUNDARY MISC KINETIC TOTAL TEMP POTENTIAL TOTALAVG TEMPAVG PRESSURE GPRESSURE VOLUME PRESSAVG GPRESSAVG
ENERGY: 0 8.5403 23.5240 6.1702 0.0000 -10904.8840 1420.6154 0.0000 0.0000 1725.7786 -7720.2554 296.2481 -9446.0341 -7720.2554 296.2481 72.7457 161.5355 30124.7678 72.7457 161.5355
ENERGY: 300000 4.1907 22.3438 3.8330 0.0000 -10948.0254 1388.1091 0.0000 0.0000 1734.6629 -7794.8858 297.7732 -9529.5487 -7811.3580 297.0840 -114.8005 -56.7555 29649.9808 64.3237 141.3556
ENERGY: 600000 8.5133 7.0228 5.1749 0.0000 -10998.9103 1473.0569 0.0000 0.0000 1681.1038 -7824.0386 288.5792 -9505.1424 -7821.8802 295.0541 -36.7126 8.3269 30639.7303 149.8832 221.0178
ENERGY: 900000 7.0536 18.4523 7.8585 0.0000 -10946.7913 1398.3225 0.0000 0.0000 1769.4209 -7745.6836 303.7398 -9515.1045 -7807.2247 296.6357 -227.1928 -150.1538 30124.2842 64.3323 150.5562
ENERGY: 1200000 4.3684 19.1648 5.1893 0.0000 -11065.8090 1453.1744 0.0000 0.0000 1721.5987 -7862.3133 295.5306 -9583.9120 -7806.3245 296.3731 -8.4196 60.3521 30040.2112 50.0316 125.5463
ENERGY: 1500000 7.3291 14.7725 5.0882 0.0000 -10945.7353 1351.5163 0.0000 0.0000 1738.3431 -7828.6861 298.4049 -9567.0292 -7798.7070 297.6012 -620.0819 -554.3020 29846.8146 -26.6933 41.6204
TCL: Running FEP window  14: Lambda1 0.65   Lambda2 0.7000000000000001 [dLambda 0.050000000000000044]
TCL: Setting parameter firsttimestep to 0
TCL: Setting parameter alchLambda to 0.65
Info: NONBONDED TABLE R-SQUARED SPACING: 0.0625
Info: NONBONDED TABLE SIZE: 705 POINTS
TCL: Setting parameter alchLambda2 to 0.7000000000000001
Info: NONBONDED TABLE R-SQUARED SPACING: 0.0625
Info: NONBONDED TABLE SIZE: 705 POINTS
TCL: Running for 1500000 steps
ETITLE: TS BOND ANGLE DIHED IMPRP ELECT VDW BOUNDARY MISC KINETIC TOTAL TEMP POTENTIAL TOTALAVG TEMPAVG PRESSURE GPRESSURE VOLUME PRESSAVG GPRESSAVG
ENERGY: 0 7.3291 14.7725 5.0882 0.0000 -10946.8069 1352.4430 0.0000 0.0000 1737.4882 -7829.6859 298.2582 -9567.1741 -7829.6859 298.2582 -613.5594 -533.4380 29846.8146 -613.5594 -533.4380
ENERGY: 300000 7.4120 14.2707 7.4020 0.0000 -10944.0685 1417.0538 0.0000 0.0000 1756.7575 -7741.1726 301.5659 -9497.9300 -7759.2641 300.1109 2.9554 54.5369 30327.7496 -318.8961 -242.4324
ENERGY: 600000 5.7563 20.4031 4.7364 0.0000 -11023.2737 1428.2181 0.0000 0.0000 1755.3850 -7808.7747 301.3304 -9564.1597 -7770.1955 300.5827 -307.0548 -238.4393 29952.7036 -213.1984 -137.2976
ENERGY: 900000 8.1423 19.7201 5.1039 0.0000 -10926.1477 1411.1245 0.0000 0.0000 1724.9228 -7757.1341 296.1012 -9482.0570 -7770.6546 299.3941 121.1260 87.7719 30045.5489 -184.9365 -124.0485
ENERGY: 1200000 3.3590 18.0613 6.2937 0.0000 -10774.1582 1306.5251 0.0000 0.0000 1730.3471 -7709.5720 297.0323 -9439.9191 -7758.6007 299.5342 -894.9991 -827.2042 30272.4138 -191.0666 -130.1085
ENERGY: 1500000 6.6811 24.1047 7.2960 0.0000 -10981.0402 1433.8295 0.0000 0.0000 1746.2151 -7762.9137 299.7562 -9509.1288 -7757.2530 299.5008 387.0782 455.2606 29809.3890 -113.6796 -53.9195
TCL: Running FEP window  15: Lambda1 0.7000000000000001 Lambda2 0.7500000000000001 [dLambda 0.050000000000000044]
TCL: Setting parameter firsttimestep to 0
TCL: Setting parameter alchLambda to 0.7000000000000001
Info: NONBONDED TABLE R-SQUARED SPACING: 0.0625
Info: NONBONDED TABLE SIZE: 705 POINTS
TCL: Setting parameter alchLambda2 to 0.7500000000000001
Info: NONBONDED TABLE R-SQUARED SPACING: 0.0625
Info: NONBONDED TABLE SIZE: 705 POINTS
TCL: Running for 1500000 steps
ETITLE: TS BOND ANGLE DIHED IMPRP ELECT VDW BOUNDARY MISC KINETIC TOTAL TEMP POTENTIAL TOTALAVG TEMPAVG PRESSURE GPRESSURE VOLUME PRESSAVG GPRESSAVG
ENERGY: 0 6.6811 24.1047 7.2960 0.0000 -10982.3368 1433.8309 0.0000 0.0000 1745.3211 -7765.1030 299.6028 -9510.4241 -7765.1030 299.6028 380.4811 468.5569 29809.3890 380.4811 468.5569
ENERGY: 300000 9.0422 20.5882 5.3890 0.0000 -10842.7380 1354.5488 0.0000 0.0000 1742.0629 -7711.1069 299.0435 -9453.1698 -7762.0689 300.0378 -268.9493 -170.4940 30143.9429 -279.3004 -204.5788
ENERGY: 600000 2.5587 18.3436 7.8759 0.0000 -10838.8175 1336.1247 0.0000 0.0000 1698.9196 -7774.9950 291.6375 -9473.9146 -7766.4349 299.0385 -849.3539 -757.5230 30433.1678 -165.7108 -96.0866
ENERGY: 900000 2.6166 18.3230 3.2067 0.0000 -11189.5422 1531.3036 0.0000 0.0000 1772.6186 -7861.4738 304.2887 -9634.0924 -7789.5336 299.3165 801.4022 853.4736 29562.8384 -148.9421 -81.0506
ENERGY: 1200000 7.8147 12.8642 3.4916 0.0000 -10979.6117 1408.7267 0.0000 0.0000 1709.3094 -7837.4050 293.4210 -9546.7144 -7788.4451 298.5011 -142.9587 -121.7607 29963.2927 -68.1931 -4.0730
ENERGY: 1500000 9.9563 12.0842 8.2360 0.0000 -10855.9579 1350.0715 0.0000 0.0000 1762.1429 -7713.4670 302.4904 -9475.6099 -7786.9035 299.1118 -203.4068 -128.6274 30117.9365 12.0584 73.1920
TCL: Running FEP window  16: Lambda1 0.7500000000000001 Lambda2 0.8000000000000002 [dLambda 0.050000000000000044]
TCL: Setting parameter firsttimestep to 0
TCL: Setting parameter alchLambda to 0.7500000000000001
Info: NONBONDED TABLE R-SQUARED SPACING: 0.0625
Info: NONBONDED TABLE SIZE: 705 POINTS
TCL: Setting parameter alchLambda2 to 0.8000000000000002
Info: NONBONDED TABLE R-SQUARED SPACING: 0.0625
Info: NONBONDED TABLE SIZE: 705 POINTS
TCL: Running for 1500000 steps
ETITLE: TS BOND ANGLE DIHED IMPRP ELECT VDW BOUNDARY MISC KINETIC TOTAL TEMP POTENTIAL TOTALAVG TEMPAVG PRESSURE GPRESSURE VOLUME PRESSAVG GPRESSAVG
ENERGY: 0 9.9563 12.0842 8.2360 0.0000 -10858.6390 1352.4402 0.0000 0.0000 1761.2688 -7714.6535 302.3404 -9475.9223 -7714.6535 302.3404 -181.5727 -91.4075 30117.9365 -181.5727 -91.4075
ENERGY: 300000 9.4555 15.7308 7.0466 0.0000 -10958.8530 1438.5812 0.0000 0.0000 1823.1428 -7664.8961 312.9617 -9488.0389 -7744.6405 301.7744 309.3418 409.5701 30380.6534 -77.1399 -10.8122
ENERGY: 600000 5.4673 13.7309 5.1387 0.0000 -10932.5078 1319.5393 0.0000 0.0000 1748.2577 -7840.3738 300.1069 -9588.6315 -7757.7456 300.5775 -896.6923 -839.5314 30138.7634 -152.7537 -89.1699
ENERGY: 900000 5.3634 21.2401 6.0346 0.0000 -11006.1136 1360.1034 0.0000 0.0000 1725.1592 -7888.2128 296.1418 -9613.3721 -7769.0100 300.7868 -513.0872 -478.0162 29721.2393 -95.6247 -33.9625
ENERGY: 1200000 3.9032 20.2793 6.0033 0.0000 -10948.7613 1362.0658 0.0000 0.0000 1753.1046 -7803.4052 300.9389 -9556.5098 -7765.8502 300.5183 -395.1952 -299.4839 29736.6528 -153.0637 -80.9428
ENERGY: 1500000 8.6361 15.7977 10.3183 0.0000 -10886.7342 1348.4266 0.0000 0.0000 1717.1204 -7786.4352 294.7618 -9503.5556 -7765.9841 299.8087 -795.0056 -674.6731 30528.4932 -161.4556 -93.7117
TCL: Running FEP window  17: Lambda1 0.8000000000000002 Lambda2 0.8500000000000002 [dLambda 0.050000000000000044]
TCL: Setting parameter firsttimestep to 0
TCL: Setting parameter alchLambda to 0.8000000000000002
Info: NONBONDED TABLE R-SQUARED SPACING: 0.0625
Info: NONBONDED TABLE SIZE: 705 POINTS
TCL: Setting parameter alchLambda2 to 0.8500000000000002
Info: NONBONDED TABLE R-SQUARED SPACING: 0.0625
Info: NONBONDED TABLE SIZE: 705 POINTS
TCL: Running for 1500000 steps
ETITLE: TS BOND ANGLE DIHED IMPRP ELECT VDW BOUNDARY MISC KINETIC TOTAL TEMP POTENTIAL TOTALAVG TEMPAVG PRESSURE GPRESSURE VOLUME PRESSAVG GPRESSAVG
ENERGY: 0 8.6361 15.7977 10.3183 0.0000 -10889.9377 1349.7285 0.0000 0.0000 1716.2518 -7789.2053 294.6127 -9505.4571 -7789.2053 294.6127 -746.6365 -650.3983 30528.4932 -746.6365 -650.3983
ENERGY: 300000 7.7713 26.6960 4.2726 0.0000 -11118.2046 1482.8783 0.0000 0.0000 1770.1925 -7826.3940 303.8722 -9596.5865 -7797.5606 298.2988 119.2659 154.8750 30293.0816 -352.2818 -305.9388
ENERGY: 600000 6.3859 13.1224 5.3255 0.0000 -11067.2942 1464.5516 0.0000 0.0000 1757.0836 -7820.8253 301.6219 -9577.9089 -7808.0071 298.5365 564.8651 547.5411 29755.3254 -99.4261 -71.4739
ENERGY: 900000 9.6763 16.5756 3.4251 0.0000 -10894.2272 1355.8812 0.0000 0.0000 1708.3444 -7800.3246 293.2553 -9508.6690 -7818.3323 297.9577 -314.1110 -201.9973 29964.0982 -68.9827 -15.9520
ENERGY: 1200000 7.7299 20.5331 7.2509 0.0000 -10885.0973 1352.5644 0.0000 0.0000 1790.9251 -7706.0940 307.4312 -9497.0191 -7809.7081 298.5506 -187.4035 -95.2142 30207.5884 -123.5900 -60.2012
ENERGY: 1500000 8.5708 20.3237 10.5615 0.0000 -10882.2393 1317.6790 0.0000 0.0000 1759.5585 -7765.5458 302.0468 -9525.1043 -7810.8675 298.9977 -819.0481 -804.5246 30393.6944 -139.6025 -77.9749
TCL: Running FEP window  18: Lambda1 0.8500000000000002 Lambda2 0.9000000000000002 [dLambda 0.050000000000000044]
TCL: Setting parameter firsttimestep to 0
TCL: Setting parameter alchLambda to 0.8500000000000002
Info: NONBONDED TABLE R-SQUARED SPACING: 0.0625
Info: NONBONDED TABLE SIZE: 705 POINTS
TCL: Setting parameter alchLambda2 to 0.9000000000000002
Info: NONBONDED TABLE R-SQUARED SPACING: 0.0625
Info: NONBONDED TABLE SIZE: 705 POINTS
TCL: Running for 1500000 steps
ETITLE: TS BOND ANGLE DIHED IMPRP ELECT VDW BOUNDARY MISC KINETIC TOTAL TEMP POTENTIAL TOTALAVG TEMPAVG PRESSURE GPRESSURE VOLUME PRESSAVG GPRESSAVG
ENERGY: 0 8.5708 20.3237 10.5615 0.0000 -10884.3066 1318.6475 0.0000 0.0000 1758.6999 -7767.5032 301.8994 -9526.2032 -7767.5032 301.8994 -853.9630 -775.7533 30393.6944 -853.9630 -775.7533
ENERGY: 300000 6.2530 17.2789 4.7531 0.0000 -10932.2419 1347.5854 0.0000 0.0000 1704.0608 -7852.3107 292.5200 -9556.3714 -7784.0845 300.7988 -522.0954 -521.6266 29971.3941 -472.2220 -415.1137
ENERGY: 600000 7.0154 17.8225 7.4907 0.0000 -11094.9217 1475.3304 0.0000 0.0000 1750.2997 -7836.9630 300.4574 -9587.2626 -7820.1131 299.2274 220.4309 342.2503 30328.1861 -310.6356 -243.1693
ENERGY: 900000 6.8283 25.3849 5.1008 0.0000 -10940.0457 1355.4570 0.0000 0.0000 1736.6390 -7810.6357 298.1124 -9547.2747 -7809.4821 300.1404 -739.5674 -716.2195 30538.5907 -290.9604 -221.2483
ENERGY: 1200000 4.9200 25.0316 4.9070 0.0000 -10987.0070 1398.2635 0.0000 0.0000 1777.6241 -7776.2608 305.1479 -9553.8849 -7807.0510 300.8407 -383.9800 -381.1216 30277.2425 -320.0043 -256.8331
ENERGY: 1500000 6.5703 14.7029 3.9799 0.0000 -11099.4525 1443.6907 0.0000 0.0000 1708.6828 -7921.8259 293.3134 -9630.5087 -7814.6070 300.2170 112.0182 174.7269 30158.7796 -181.9399 -118.4102
TCL: Running FEP window  19: Lambda1 0.9000000000000002 Lambda2 0.9500000000000003 [dLambda 0.050000000000000044]
TCL: Setting parameter firsttimestep to 0
TCL: Setting parameter alchLambda to 0.9000000000000002
Info: NONBONDED TABLE R-SQUARED SPACING: 0.0625
Info: NONBONDED TABLE SIZE: 705 POINTS
TCL: Setting parameter alchLambda2 to 0.9500000000000003
Info: NONBONDED TABLE R-SQUARED SPACING: 0.0625
Info: NONBONDED TABLE SIZE: 705 POINTS
TCL: Running for 1500000 steps
ETITLE: TS BOND ANGLE DIHED IMPRP ELECT VDW BOUNDARY MISC KINETIC TOTAL TEMP POTENTIAL TOTALAVG TEMPAVG PRESSURE GPRESSURE VOLUME PRESSAVG GPRESSAVG
ENERGY: 0 6.5703 14.7029 3.9799 0.0000 -11101.9823 1444.5764 0.0000 0.0000 1707.8187 -7924.3341 293.1651 -9632.1529 -7924.3341 293.1651 113.1583 204.0124 30158.7796 113.1583 204.0124
ENERGY: 300000 10.1116 18.0175 6.2113 0.0000 -10963.5503 1380.6886 0.0000 0.0000 1679.0815 -7869.4399 288.2320 -9548.5213 -7927.1704 287.9035 -322.5003 -210.4873 29815.9322 -108.8111 -33.7647
ENERGY: 600000 10.0771 16.2196 7.1617 0.0000 -11005.9253 1410.9704 0.0000 0.0000 1792.6775 -7768.8190 307.7320 -9561.4966 -7871.2059 292.5993 11.5821 78.9258 30035.2329 -83.5609 -28.0631
ENERGY: 900000 5.9066 23.2321 7.9951 0.0000 -10996.6429 1462.4832 0.0000 0.0000 1717.2943 -7779.7315 294.7917 -9497.0259 -7823.9259 295.4600 259.7788 349.3157 30576.5706 -221.4425 -162.0712
ENERGY: 1200000 6.4727 18.5605 7.0780 0.0000 -11072.5757 1489.2315 0.0000 0.0000 1733.1298 -7818.1032 297.5100 -9551.2330 -7818.6100 296.5199 586.1158 613.5982 29963.6955 -68.3999 -13.7057
ENERGY: 1500000 5.8994 13.3972 9.2655 0.0000 -11028.3687 1418.1811 0.0000 0.0000 1772.1335 -7809.4920 304.2054 -9581.6255 -7812.3733 297.1164 183.4256 291.7336 29398.1949 -88.9204 -36.7487
TCL: Running FEP window  20: Lambda1 0.9500000000000003 Lambda2 1.0    [dLambda 0.04999999999999971]
TCL: Setting parameter firsttimestep to 0
TCL: Setting parameter alchLambda to 0.9500000000000003
Info: NONBONDED TABLE R-SQUARED SPACING: 0.0625
Info: NONBONDED TABLE SIZE: 705 POINTS
TCL: Setting parameter alchLambda2 to 1.0
Info: NONBONDED TABLE R-SQUARED SPACING: 0.0625
Info: NONBONDED TABLE SIZE: 705 POINTS
TCL: Running for 1500000 steps
ETITLE: TS BOND ANGLE DIHED IMPRP ELECT VDW BOUNDARY MISC KINETIC TOTAL TEMP POTENTIAL TOTALAVG TEMPAVG PRESSURE GPRESSURE VOLUME PRESSAVG GPRESSAVG
ENERGY: 0 5.8994 13.3972 9.2655 0.0000 -11032.3777 1423.1255 0.0000 0.0000 1771.2646 -7809.4256 304.0563 -9580.6902 -7809.4256 304.0563 302.5058 380.8338 29398.1949 302.5058 380.8338
ENERGY: 300000 6.1424 18.9183 10.0040 0.0000 -11038.7470 1415.2622 0.0000 0.0000 1796.7765 -7791.6436 308.4356 -9588.4201 -7806.8032 303.3678 144.9128 207.2219 29867.4151 388.2754 417.9330
ENERGY: 600000 2.7028 17.2309 5.4348 0.0000 -11037.4876 1444.5977 0.0000 0.0000 1704.0175 -7863.5039 292.5126 -9567.5214 -7828.2803 301.3492 136.6362 193.8633 29949.9187 311.1840 353.0630
ENERGY: 900000 5.4102 15.7149 7.5279 0.0000 -10970.2447 1369.9728 0.0000 0.0000 1709.9225 -7861.6965 293.5262 -9571.6189 -7833.0281 300.2712 -662.6245 -542.5275 30002.9197 79.6077 145.0660
ENERGY: 1200000 9.2103 16.7180 6.1944 0.0000 -11053.3386 1413.9486 0.0000 0.0000 1724.5269 -7882.7404 296.0332 -9607.2673 -7840.7040 299.0769 340.3481 318.2625 29695.0427 116.4583 169.0790
ENERGY: 1500000 5.8785 16.8278 6.3021 0.0000 -11089.4779 1447.6251 0.0000 0.0000 1788.5603 -7824.2840 307.0252 -9612.8443 -7837.2640 299.9349 -11.7217 -12.0046 30110.2353 120.3047 164.4935
TCL: Exiting due to exit command.
