Info: SIMULATION PARAMETERS:
Info: TIMESTEP               2
Info: NUMBER OF STEPS        0
Info: STEPS PER CYCLE        10
Info: PERIODIC CELL BASIS 1  29.9895 0 0
Info: PERIODIC CELL BASIS 2  0 33.136 0
Info: PERIODIC CELL BASIS 3  0 0 30.6444
Info: PERIODIC CELL CENTER   0 0 0
Info: WRAPPING WATERS AROUND PERIODIC BOUNDARIES ON OUTPUT.
Info: WRAPPING ALL CLUSTERS AROUND PERIODIC BOUNDARIES ON OUTPUT.
Info: FIRST LDB TIMESTEP     50
Info: LAST LDB TIMESTEP     -1
Info: HOM BACKGROUND SCALING 1
Info: PME BACKGROUND SCALING 1
Info: MIN ATOMS PER PATCH    40
Info: EMPTY PATCH LOAD       40 ATOMS
Info: VELOCITY FILE          mobley_7176248_equil.vel
Info: CENTER OF MASS MOVING INITIALLY? NO
Info: DIELECTRIC             1
Info: EXCLUDE                SCALED ONE-FOUR
Info: 1-4 ELECTROSTATICS SCALED BY 0.833333
Info: MODIFIED 1-4 VDW PARAMETERS WILL BE USED
Info: DCD FILENAME           mobley_7176248_prod.dcd
Info: DCD FREQUENCY          100000
Info: DCD FIRST STEP         100000
Info: DCD FILE WILL CONTAIN UNIT CELL DATA
Info: XST FILENAME           mobley_7176248_prod.xst
Info: XST FREQUENCY          100000
Info: NO VELOCITY DCD OUTPUT
Info: NO FORCE DCD OUTPUT
Info: OUTPUT FILENAME        mobley_7176248_prod
Info: BINARY OUTPUT FILES WILL BE USED
Info: RESTART FILENAME       mobley_7176248_prod.restart
Info: RESTART FREQUENCY      100000
Info: BINARY RESTART FILES WILL BE USED
Info: CUTOFF                 9
Info: PAIRLIST DISTANCE      11
Info: PAIRLIST SHRINK RATE   0.01
Info: PAIRLIST GROW RATE     0.01
Info: PAIRLIST TRIGGER       0.3
Info: PAIRLISTS PER CYCLE    2
Info: PAIRLISTS ENABLED
Info: MARGIN                 2
Info: HYDROGEN GROUP CUTOFF  2.5
Info: PATCH DIMENSION        15.5
Info: ENERGY OUTPUT STEPS    100000
Info: ENERGY EVALUATION STEPS    100000
Info: OUTPUT ENERGY PRECISION 4
Info: CROSSTERM ENERGY INCLUDED IN DIHEDRAL
Info: TIMING OUTPUT STEPS    1000000
Info: PRESSURE OUTPUT STEPS  100000
Info: ALCHEMICAL FEP ON
Info: FEP CURRENT LAMBDA VALUE     1
Info: FEP COMPARISON LAMBDA VALUE  0.95
Info: FEP INTRA-ALCHEMICAL NON-BONDED INTERACTIONS WILL BE RETAINED
Info: FEP INTRA-ALCHEMICAL BONDED INTERACTIONS WILL BE RETAINED
Info: FEP VDW SHIFTING COEFFICIENT 5
Info: FEP ELEC. ACTIVE FOR ANNIHILATED PARTICLES BETWEEN LAMBDA = 0 AND LAMBDA = 0.5
Info: FEP ELEC. ACTIVE FOR EXNIHILATED PARTICLES BETWEEN LAMBDA = 0.5 AND LAMBDA = 1
Info: FEP VDW ACTIVE FOR ANNIHILATED PARTICLES BETWEEN LAMBDA = 0 AND LAMBDA = 1
Info: FEP VDW ACTIVE FOR EXNIHILATED PARTICLES BETWEEN LAMBDA = 0 AND LAMBDA = 1
Info: FEP BOND ACTIVE FOR ANNIHILATED PARTICLES BETWEEN LAMBDA = 1 AND LAMBDA = 1
Info: FEP BOND ACTIVE FOR EXNIHILATED PARTICLES BETWEEN LAMBDA = 0 AND LAMBDA = 0
Info: LANGEVIN DYNAMICS ACTIVE
Info: LANGEVIN TEMPERATURE   300
Info: LANGEVIN USING BBK INTEGRATOR
Info: LANGEVIN DAMPING COEFFICIENT IS 1 INVERSE PS
Info: LANGEVIN DYNAMICS APPLIED TO HYDROGENS
Info: LANGEVIN PISTON PRESSURE CONTROL ACTIVE
Info:        TARGET PRESSURE IS 1.01325 BAR
Info:     OSCILLATION PERIOD IS 50 FS
Info:             DECAY TIME IS 25 FS
Info:     PISTON TEMPERATURE IS 300 K
Info:       PRESSURE CONTROL IS GROUP-BASED
Info:    INITIAL STRAIN RATE IS -0.000462265 -0.000462265 -0.000462265
Info:       CELL FLUCTUATION IS ISOTROPIC
Info: PARTICLE MESH EWALD (PME) ACTIVE
Info: PME TOLERANCE               1e-06
Info: PME EWALD COEFFICIENT       0.348832
Info: PME INTERPOLATION ORDER     4
Info: PME GRID DIMENSIONS         32 36 32
Info: PME MAXIMUM GRID SPACING    1
Info: PME CALCULATION WILL BE PERFORMED ON GPU
Info: FULL ELECTROSTATIC EVALUATION FREQUENCY      2
Info: USING VERLET I (r-RESPA) MTS SCHEME.
Info: C1 SPLITTING OF LONG RANGE ELECTROSTATICS
Info: PLACING ATOMS IN PATCHES BY HYDROGEN GROUPS
Info: RIGID BONDS TO HYDROGEN : ALL
Info:         ERROR TOLERANCE : 1e-08
Info:          MAX ITERATIONS : 100
Info: RIGID WATER USING SETTLE ALGORITHM
Info: RANDOM NUMBER SEED     1744088732
Info: USE HYDROGEN BONDS?    NO
Info: Using AMBER format force field!
Info: AMBER PARM FILE        mobley_7176248.prmtop
Info: COORDINATE PDB         mobley_7176248.pdb
Info: Exclusions will be read from PARM file!
Info: SCNB (VDW SCALING)     2
Info: USING ARITHMETIC MEAN TO COMBINE L-J SIGMA PARAMETERS
Info: BINARY COORDINATES     mobley_7176248_equil.coor
Info: SUMMARY OF PARAMETERS:
Info: 13 BONDS
Info: 18 ANGLES
Info:   18 HARMONIC
Info:   0 COSINE-BASED
Info: 8 DIHEDRAL
Info: 0 IMPROPER
Info: 0 CROSSTERM
Info: 0 VDW
Info: 55 VDW_PAIRS
Info: 0 NBTHOLE_PAIRS
Info: To read alchdata from file: mobley_7176248.pdb
Info: To read alchflag data from column: 5
Info: STRUCTURE SUMMARY:
Info: 2940 ATOMS
Info: 2940 BONDS
Info: 69 ANGLES
Info: 97 DIHEDRALS
Info: 0 IMPROPERS
Info: 0 CROSSTERMS
Info: 3096 EXCLUSIONS
Info: 2917 RIGID BONDS
Info: ALCH: 0 ATOMS TO DISAPPEAR IN FINAL STATE
Info: ALCH: 39 ATOMS TO APPEAR IN FINAL STATE
Info: 5903 DEGREES OF FREEDOM
Info: 990 HYDROGEN GROUPS
Info: 4 ATOMS IN LARGEST HYDROGEN GROUP
Info: 990 MIGRATION GROUPS
Info: 4 ATOMS IN LARGEST MIGRATION GROUP
Info: TOTAL MASS = 17756.8 amu
Info: TOTAL CHARGE = 0.000199966 e
Info: MASS DENSITY = 0.968286 g/cm^3
Info: ATOM DENSITY = 0.0965446 atoms/A^3
Info: ADDED 0 IMPLICIT EXCLUSIONS
Info: NONBONDED TABLE R-SQUARED SPACING: 0.0625
Info: NONBONDED TABLE SIZE: 705 POINTS
Info: REMOVING COM VELOCITY -0.0396983 0.0415127 0.0281004
Info: Use 3D box decompostion in PME FFT.
Info: Updated CUDA force table with 4096 elements.
Info: Updated CUDA LJ table with 10 x 10 elements.
Info: Found 40 unique exclusion lists needing 212 bytes
TCL: Running for 1500000 steps
ETITLE: TS BOND ANGLE DIHED IMPRP ELECT VDW BOUNDARY MISC KINETIC TOTAL TEMP POTENTIAL TOTALAVG TEMPAVG PRESSURE GPRESSURE VOLUME PRESSAVG GPRESSAVG
ENERGY: 0 5.6281 13.4324 22.2531 0.0000 -10619.9020 1455.5452 0.0000 0.0000 1748.0245 -7375.0186 298.0335 -9123.0432 -7375.0186 298.0335 511.1724 596.8276 30452.2319 511.1724 596.8276
ENERGY: 300000 11.5134 17.7413 19.2622 0.0000 -10578.2475 1392.7454 0.0000 0.0000 1742.5253 -7394.4600 297.0959 -9136.9853 -7423.4090 295.8723 -319.7399 -236.7920 30520.2651 190.5599 251.9420
ENERGY: 600000 4.6869 13.9406 18.5882 0.0000 -10444.1727 1352.3833 0.0000 0.0000 1819.2273 -7235.3463 310.1734 -9054.5736 -7389.0232 299.8375 200.8154 283.4304 30216.5755 61.0134 127.9872
ENERGY: 900000 5.3187 14.1083 17.8959 0.0000 -10517.0196 1278.1563 0.0000 0.0000 1772.5626 -7428.9778 302.2172 -9201.5404 -7384.0994 300.0301 -993.0644 -895.9050 30085.0186 2.7874 77.5021
ENERGY: 1200000 4.8882 13.3587 17.2163 0.0000 -10662.6367 1431.9231 0.0000 0.0000 1784.2835 -7410.9669 304.2156 -9195.2504 -7391.4528 300.3816 220.7282 279.5854 29951.9517 -5.0060 68.1449
ENERGY: 1500000 11.4111 10.9963 17.6133 0.0000 -10595.1522 1415.6051 0.0000 0.0000 1795.7890 -7343.7375 306.1772 -9139.5264 -7376.5533 301.5188 -165.3457 -113.6718 30590.6986 -6.6485 66.2858
TCL: Running FEP window   2: Lambda1 0.95   Lambda2 0.8999999999999999 [dLambda -0.050000000000000044]
TCL: Setting parameter firsttimestep to 0
TCL: Setting parameter alchLambda to 0.95
Info: NONBONDED TABLE R-SQUARED SPACING: 0.0625
Info: NONBONDED TABLE SIZE: 705 POINTS
TCL: Setting parameter alchLambda2 to 0.8999999999999999
Info: NONBONDED TABLE R-SQUARED SPACING: 0.0625
Info: NONBONDED TABLE SIZE: 705 POINTS
TCL: Running for 1500000 steps
ETITLE: TS BOND ANGLE DIHED IMPRP ELECT VDW BOUNDARY MISC KINETIC TOTAL TEMP POTENTIAL TOTALAVG TEMPAVG PRESSURE GPRESSURE VOLUME PRESSAVG GPRESSAVG
ENERGY: 0 11.4111 10.9963 17.6133 0.0000 -10594.2907 1415.6719 0.0000 0.0000 1794.9592 -7343.6389 306.0358 -9138.5981 -7343.6389 306.0358 -212.5622 -137.5199 30590.6986 -212.5622 -137.5199
ENERGY: 300000 8.4212 17.5700 16.5236 0.0000 -10550.3521 1367.2608 0.0000 0.0000 1760.3642 -7380.2124 300.1374 -9140.5766 -7443.1562 298.5032 -538.6364 -451.4146 30526.3687 -302.8426 -224.6814
ENERGY: 600000 16.8207 13.2839 21.1535 0.0000 -10647.6972 1448.9696 0.0000 0.0000 1717.8484 -7429.6210 292.8886 -9147.4694 -7426.3617 296.2740 518.7452 522.0350 29924.8208 -92.7827 -34.6955
ENERGY: 900000 7.1843 12.9020 22.7923 0.0000 -10679.5615 1456.7870 0.0000 0.0000 1708.6404 -7471.2554 291.3186 -9179.8959 -7417.2496 296.4616 339.8095 424.7420 30161.6179 -31.8296 29.7156
ENERGY: 1200000 7.1337 12.1610 14.4065 0.0000 -10548.6281 1393.1491 0.0000 0.0000 1712.8722 -7408.9055 292.0402 -9121.7777 -7390.7757 298.1672 -279.2089 -169.2685 30332.7791 -105.2476 -39.9699
ENERGY: 1500000 8.3944 19.8129 16.9647 0.0000 -10395.6531 1241.6770 0.0000 0.0000 1717.3804 -7391.4237 292.8088 -9108.8041 -7380.5523 298.2520 -1371.8935 -1348.3467 30635.3173 -275.1029 -214.7678
TCL: Running FEP window   3: Lambda1 0.8999999999999999 Lambda2 0.8499999999999999 [dLambda -0.050000000000000044]
TCL: Setting parameter firsttimestep to 0
TCL: Setting parameter alchLambda to 0.8999999999999999
Info: NONBONDED TABLE R-SQUARED SPACING: 0.0625
Info: NONBONDED TABLE SIZE: 705 POINTS
TCL: Setting parameter alchLambda2 to 0.8499999999999999
Info: NONBONDED TABLE R-SQUARED SPACING: 0.0625
Info: NONBONDED TABLE SIZE: 705 POINTS
TCL: Running for 1500000 steps
ETITLE: TS BOND ANGLE DIHED IMPRP ELECT VDW BOUNDARY MISC KINETIC TOTAL TEMP POTENTIAL TOTALAVG TEMPAVG PRESSURE GPRESSURE VOLUME PRESSAVG GPRESSAVG
ENERGY: 0 8.3944 19.8129 16.9647 0.0000 -10395.0331 1241.8557 0.0000 0.0000 1716.5184 -7391.4870 292.6618 -9108.0054 -7391.4870 292.6618 -1432.9051 -1372.3002 30635.3173 -1432.9051 -1372.3002
ENERGY: 300000 9.6745 17.0466 16.2334 0.0000 -10557.9923 1387.1760 0.0000 0.0000 1809.6420 -7318.2199 308.5391 -9127.8619 -7341.6198 301.9816 -20.0333 -0.3318 30030.4112 -187.2558 -169.9085
ENERGY: 600000 8.2056 15.2414 20.0071 0.0000 -10574.4850 1382.5158 0.0000 0.0000 1770.6854 -7377.8298 301.8971 -9148.5152 -7362.7660 300.2492 -27.7134 5.9483 29851.1500 -90.0785 -55.8483
ENERGY: 900000 5.8222 21.0436 19.9055 0.0000 -10449.0405 1306.3594 0.0000 0.0000 1704.0706 -7391.8393 290.5395 -9095.9098 -7367.7984 298.9430 -957.3277 -866.1722 30840.2255 -146.5658 -96.7746
ENERGY: 1200000 11.1463 14.0424 19.0361 0.0000 -10487.4052 1395.4161 0.0000 0.0000 1734.2778 -7313.4866 295.6897 -9047.7644 -7360.7089 299.0045 101.5202 226.3310 30532.5508 -207.4986 -142.9004
ENERGY: 1500000 6.2281 13.5290 18.7342 0.0000 -10419.3545 1271.9761 0.0000 0.0000 1808.6377 -7300.2495 308.3679 -9108.8871 -7350.4965 299.9001 -912.0945 -868.2090 30233.1708 -216.8277 -150.0436
TCL: Running FEP window   4: Lambda1 0.8499999999999999 Lambda2 0.7999999999999998 [dLambda -0.050000000000000044]
TCL: Setting parameter firsttimestep to 0
TCL: Setting parameter alchLambda to 0.8499999999999999
Info: NONBONDED TABLE R-SQUARED SPACING: 0.0625
Info: NONBONDED TABLE SIZE: 705 POINTS
TCL: Setting parameter alchLambda2 to 0.7999999999999998
Info: NONBONDED TABLE R-SQUARED SPACING: 0.0625
Info: NONBONDED TABLE SIZE: 705 POINTS
TCL: Running for 1500000 steps
ETITLE: TS BOND ANGLE DIHED IMPRP ELECT VDW BOUNDARY MISC KINETIC TOTAL TEMP POTENTIAL TOTALAVG TEMPAVG PRESSURE GPRESSURE VOLUME PRESSAVG GPRESSAVG
ENERGY: 0 6.2281 13.5290 18.7342 0.0000 -10418.8525 1272.5925 0.0000 0.0000 1807.7804 -7299.9883 308.2217 -9107.7687 -7299.9883 308.2217 -958.5434 -882.2278 30233.1708 -958.5434 -882.2278
ENERGY: 300000 10.9978 10.7916 20.1040 0.0000 -10392.6668 1357.1267 0.0000 0.0000 1782.3803 -7211.2664 303.8911 -8993.6467 -7281.9492 306.4597 -148.8366 -104.1733 30746.8681 -489.4677 -431.8811
ENERGY: 600000 9.8843 18.4501 23.7460 0.0000 -10680.4860 1425.3093 0.0000 0.0000 1742.6196 -7460.4767 297.1120 -9203.0963 -7322.7364 302.9197 -256.5460 -226.4206 30212.7118 -350.3504 -291.8989
ENERGY: 900000 9.9415 16.4453 21.3795 0.0000 -10580.6754 1406.6852 0.0000 0.0000 1786.6733 -7339.5505 304.6230 -9126.2238 -7334.0387 301.7773 170.6604 178.5511 30125.0320 -284.9527 -232.3888
ENERGY: 1200000 6.7149 14.9664 20.2490 0.0000 -10727.8399 1454.5141 0.0000 0.0000 1765.6961 -7465.6994 301.0465 -9231.3955 -7351.7376 301.4216 -231.0622 -88.7467 30012.4473 -324.6596 -262.1921
ENERGY: 1500000 7.8743 14.0929 20.9262 0.0000 -10743.8933 1502.0331 0.0000 0.0000 1743.2919 -7455.6750 297.2266 -9198.9668 -7350.7161 300.8932 856.9157 885.0093 29703.6983 -222.7024 -159.7096
TCL: Running FEP window   5: Lambda1 0.7999999999999998 Lambda2 0.7499999999999998 [dLambda -0.050000000000000044]
TCL: Setting parameter firsttimestep to 0
TCL: Setting parameter alchLambda to 0.7999999999999998
Info: NONBONDED TABLE R-SQUARED SPACING: 0.0625
Info: NONBONDED TABLE SIZE: 705 POINTS
TCL: Setting parameter alchLambda2 to 0.7499999999999998
Info: NONBONDED TABLE R-SQUARED SPACING: 0.0625
Info: NONBONDED TABLE SIZE: 705 POINTS
TCL: Running for 1500000 steps
ETITLE: TS BOND ANGLE DIHED IMPRP ELECT VDW BOUNDARY MISC KINETIC TOTAL TEMP POTENTIAL TOTALAVG TEMPAVG PRESSURE GPRESSURE VOLUME PRESSAVG GPRESSAVG
ENERGY: 0 7.8743 14.0929 20.9262 0.0000 -10742.7658 1502.4727 0.0000 0.0000 1742.4527 -7454.9471 297.0835 -9197.3998 -7454.9471 297.0835 796.4388 864.6593 29703.6983 796.4388 864.6593
ENERGY: 300000 7.6252 12.9939 20.7968 0.0000 -10584.9803 1384.3703 0.0000 0.0000 1764.6736 -7394.5205 300.8721 -9159.1941 -7409.4536 296.8402 -748.9090 -686.3722 30817.8368 127.2107 189.6855
ENERGY: 600000 6.3270 17.5502 18.6623 0.0000 -10681.2499 1473.1691 0.0000 0.0000 1717.3807 -7448.1606 292.8088 -9165.5412 -7397.6635 296.0428 319.7704 345.1000 30230.8606 -112.5264 -53.0946
ENERGY: 900000 10.1799 15.8492 21.8833 0.0000 -10523.1135 1307.7964 0.0000 0.0000 1774.9690 -7392.4357 302.6275 -9167.4047 -7384.1431 298.3333 -924.7825 -830.2374 29752.6852 -237.4661 -177.9351
ENERGY: 1200000 9.8328 11.4835 17.3773 0.0000 -10485.4167 1403.5393 0.0000 0.0000 1776.4958 -7266.6879 302.8878 -9043.1837 -7372.5290 299.0928 315.8882 353.2454 30139.1871 -98.6520 -45.0436
ENERGY: 1500000 3.4618 14.7783 22.8968 0.0000 -10585.4235 1377.0786 0.0000 0.0000 1783.7489 -7383.4591 304.1244 -9167.2080 -7371.4184 299.1761 -290.3756 -237.7354 30558.8150 -136.2398 -79.5463
TCL: Running FEP window   6: Lambda1 0.7499999999999998 Lambda2 0.6999999999999997 [dLambda -0.050000000000000044]
TCL: Setting parameter firsttimestep to 0
TCL: Setting parameter alchLambda to 0.7499999999999998
Info: NONBONDED TABLE R-SQUARED SPACING: 0.0625
Info: NONBONDED TABLE SIZE: 705 POINTS
TCL: Setting parameter alchLambda2 to 0.6999999999999997
Info: NONBONDED TABLE R-SQUARED SPACING: 0.0625
Info: NONBONDED TABLE SIZE: 705 POINTS
TCL: Running for 1500000 steps
ETITLE: TS BOND ANGLE DIHED IMPRP ELECT VDW BOUNDARY MISC KINETIC TOTAL TEMP POTENTIAL TOTALAVG TEMPAVG PRESSURE GPRESSURE VOLUME PRESSAVG GPRESSAVG
ENERGY: 0 3.4618 14.7783 22.8968 0.0000 -10585.0927 1378.3018 0.0000 0.0000 1782.9068 -7382.7473 303.9809 -9165.6540 -7382.7473 303.9809 -338.9951 -247.5135 30558.8150 -338.9951 -247.5135
ENERGY: 300000 10.8514 18.4089 17.7479 0.0000 -10643.5753 1435.7557 0.0000 0.0000 1806.9178 -7353.8936 308.0747 -9160.8114 -7399.9095 300.0703 -198.4770 -146.7229 30427.1612 -89.7793 -18.2845
ENERGY: 600000 8.4967 17.8368 21.4545 0.0000 -10599.1961 1402.0455 0.0000 0.0000 1741.0333 -7408.3294 296.8415 -9149.3627 -7373.9107 301.1354 26.2764 100.4000 30326.7275 -69.7346 -4.8848
ENERGY: 900000 6.3059 18.9662 18.2362 0.0000 -10693.6119 1519.9451 0.0000 0.0000 1778.5960 -7351.5625 303.2459 -9130.1585 -7370.5700 301.2888 1138.3539 1131.9784 30065.2409 218.9614 276.4785
ENERGY: 1200000 5.9682 13.1144 19.8544 0.0000 -10556.3351 1406.6664 0.0000 0.0000 1737.9211 -7372.8104 296.3109 -9110.7316 -7365.8658 300.1574 256.7751 257.4598 30112.2431 271.5150 320.2986
ENERGY: 1500000 8.2969 13.0344 18.7416 0.0000 -10576.2719 1458.8139 0.0000 0.0000 1779.1700 -7298.2149 303.3438 -9077.3850 -7363.4009 300.5286 514.3191 621.6169 30345.9109 215.9920 274.2771
TCL: Running FEP window   7: Lambda1 0.6999999999999997 Lambda2 0.6499999999999997 [dLambda -0.050000000000000044]
TCL: Setting parameter firsttimestep to 0
TCL: Setting parameter alchLambda to 0.6999999999999997
Info: NONBONDED TABLE R-SQUARED SPACING: 0.0625
Info: NONBONDED TABLE SIZE: 705 POINTS
TCL: Setting parameter alchLambda2 to 0.6499999999999997
Info: NONBONDED TABLE R-SQUARED SPACING: 0.0625
Info: NONBONDED TABLE SIZE: 705 POINTS
TCL: Running for 1500000 steps
ETITLE: TS BOND ANGLE DIHED IMPRP ELECT VDW BOUNDARY MISC KINETIC TOTAL TEMP POTENTIAL TOTALAVG TEMPAVG PRESSURE GPRESSURE VOLUME PRESSAVG GPRESSAVG
ENERGY: 0 8.2969 13.0344 18.7416 0.0000 -10575.5583 1459.3444 0.0000 0.0000 1778.3206 -7297.8203 303.1989 -9076.1410 -7297.8203 303.1989 540.9464 608.9946 30345.9109 540.9464 608.9946
ENERGY: 300000 6.0910 18.9065 19.5848 0.0000 -10648.9144 1399.4364 0.0000 0.0000 1777.5441 -7427.3517 303.0665 -9204.8958 -7364.6982 299.1099 150.4624 209.6901 29942.9831 34.1781 106.7167
ENERGY: 600000 5.6719 26.2178 16.8017 0.0000 -10467.2338 1315.9706 0.0000 0.0000 1744.2374 -7358.3344 297.3878 -9102.5719 -7352.7144 299.9923 -725.9653 -722.8700 30602.8339 -95.3901 -48.9105
ENERGY: 900000 10.4868 17.9086 18.5478 0.0000 -10603.9960 1365.2926 0.0000 0.0000 1758.6127 -7433.1474 299.8388 -9191.7602 -7368.4239 300.4438 -862.7296 -792.7565 30085.1749 -193.9435 -142.7572
ENERGY: 1200000 14.7400 15.1311 18.6339 0.0000 -10564.0696 1406.2947 0.0000 0.0000 1737.9401 -7371.3298 296.3142 -9109.2699 -7368.7321 299.3773 -99.1524 -28.2585 29940.1472 -206.0748 -149.3281
ENERGY: 1500000 9.0466 19.5850 15.8366 0.0000 -10494.6650 1363.4345 0.0000 0.0000 1771.9129 -7314.8494 302.1064 -9086.7624 -7364.6680 299.9273 -539.6559 -460.0691 30667.5972 -197.0086 -141.7183
TCL: Running FEP window   8: Lambda1 0.6499999999999997 Lambda2 0.5999999999999996 [dLambda -0.050000000000000044]
TCL: Setting parameter firsttimestep to 0
TCL: Setting parameter alchLambda to 0.6499999999999997
Info: NONBONDED TABLE R-SQUARED SPACING: 0.0625
Info: NONBONDED TABLE SIZE: 705 POINTS
TCL: Setting parameter alchLambda2 to 0.5999999999999996
Info: NONBONDED TABLE R-SQUARED SPACING: 0.0625
Info: NONBONDED TABLE SIZE: 705 POINTS
TCL: Running for 1500000 steps
ETITLE: TS BOND ANGLE DIHED IMPRP ELECT VDW BOUNDARY MISC KINETIC TOTAL TEMP POTENTIAL TOTALAVG TEMPAVG PRESSURE GPRESSURE VOLUME PRESSAVG GPRESSAVG
ENERGY: 0 9.0466 19.5849 15.8366 0.0000 -10494.1824 1363.7349 0.0000 0.0000 1771.0523 -7314.9270 301.9597 -9085.9793 -7314.9270 301.9597 -567.6070 -478.4714 30667.5972 -567.6070 -478.4714
ENERGY: 300000 5.1564 15.6553 20.5145 0.0000 -10405.1984 1354.4508 0.0000 0.0000 1825.3314 -7184.0900 311.2141 -9009.4214 -7299.9426 302.0652 -151.2188 -74.2409 30757.9346 -217.6119 -134.6550
ENERGY: 600000 6.6780 16.7602 18.1289 0.0000 -10354.3339 1325.3446 0.0000 0.0000 1761.8096 -7225.6128 300.3838 -8987.4224 -7315.4593 299.3176 -580.0119 -458.6762 30670.2524 -326.3668 -245.0445
ENERGY: 900000 7.3339 14.7289 22.0860 0.0000 -10553.7096 1365.3470 0.0000 0.0000 1706.5088 -7437.7051 290.9552 -9144.2138 -7345.2453 298.4275 -422.5103 -305.9181 30491.4296 -380.8552 -303.8842
ENERGY: 1200000 4.9465 13.7237 19.3816 0.0000 -10538.3360 1382.7199 0.0000 0.0000 1761.6858 -7355.8785 300.3627 -9117.5643 -7353.8392 299.3625 -369.4064 -301.4035 30767.0679 -341.4005 -264.6082
ENERGY: 1500000 6.3902 14.7206 19.9960 0.0000 -10535.7126 1368.0201 0.0000 0.0000 1744.4475 -7382.1383 297.4237 -9126.5858 -7358.3458 299.7710 -519.8904 -394.1217 30427.4355 -334.0287 -260.0966
TCL: Running FEP window   9: Lambda1 0.5999999999999996 Lambda2 0.5499999999999996 [dLambda -0.050000000000000044]
TCL: Setting parameter firsttimestep to 0
TCL: Setting parameter alchLambda to 0.5999999999999996
Info: NONBONDED TABLE R-SQUARED SPACING: 0.0625
Info: NONBONDED TABLE SIZE: 705 POINTS
TCL: Setting parameter alchLambda2 to 0.5499999999999996
Info: NONBONDED TABLE R-SQUARED SPACING: 0.0625
Info: NONBONDED TABLE SIZE: 705 POINTS
TCL: Running for 1500000 steps
ETITLE: TS BOND ANGLE DIHED IMPRP ELECT VDW BOUNDARY MISC KINETIC TOTAL TEMP POTENTIAL TOTALAVG TEMPAVG PRESSURE GPRESSURE VOLUME PRESSAVG GPRESSAVG
ENERGY: 0 6.3902 14.7206 19.9960 0.0000 -10535.2283 1368.7504 0.0000 0.0000 1743.5799 -7381.7912 297.2757 -9125.3712 -7381.7912 297.2757 -482.0807 -405.0458 30427.4355 -482.0807 -405.0458
ENERGY: 300000 4.0165 13.1871 20.2861 0.0000 -10594.8173 1429.3102 0.0000 0.0000 1721.6933 -7406.3242 293.5441 -9128.0174 -7370.1807 298.9816 403.3302 412.2044 29991.6262 70.6673 117.5498
ENERGY: 600000 6.5917 14.3379 20.8476 0.0000 -10507.1624 1374.0669 0.0000 0.0000 1779.3032 -7312.0151 303.3665 -9091.3183 -7345.3950 300.2203 -499.5872 -343.7868 30461.6267 -75.8133 -15.9289
ENERGY: 900000 6.9841 17.3555 19.3388 0.0000 -10725.1115 1563.9456 0.0000 0.0000 1737.5811 -7379.9064 296.2530 -9117.4875 -7351.6533 300.1580 1333.2257 1400.9503 30094.7808 3.0957 67.1576
ENERGY: 1200000 9.2486 11.8857 20.4628 0.0000 -10459.0876 1375.9625 0.0000 0.0000 1714.6137 -7326.9144 292.3371 -9041.5281 -7348.0418 299.0724 183.7300 223.6667 30295.9168 19.9549 78.4511
ENERGY: 1500000 4.9557 18.4665 21.4707 0.0000 -10519.0842 1419.1489 0.0000 0.0000 1698.4907 -7356.5516 289.5881 -9055.0424 -7355.6235 298.2932 -55.3893 -4.3621 30379.3751 1.7577 63.4141
TCL: Running FEP window  10: Lambda1 0.5499999999999996 Lambda2 0.4999999999999996 [dLambda -0.04999999999999999]
TCL: Setting parameter firsttimestep to 0
TCL: Setting parameter alchLambda to 0.5499999999999996
Info: NONBONDED TABLE R-SQUARED SPACING: 0.0625
Info: NONBONDED TABLE SIZE: 705 POINTS
TCL: Setting parameter alchLambda2 to 0.4999999999999996
Info: NONBONDED TABLE R-SQUARED SPACING: 0.0625
Info: NONBONDED TABLE SIZE: 705 POINTS
TCL: Running for 1500000 steps
ETITLE: TS BOND ANGLE DIHED IMPRP ELECT VDW BOUNDARY MISC KINETIC TOTAL TEMP POTENTIAL TOTALAVG TEMPAVG PRESSURE GPRESSURE VOLUME PRESSAVG GPRESSAVG
ENERGY: 0 4.9557 18.4665 21.4707 0.0000 -10518.8226 1420.4301 0.0000 0.0000 1697.6655 -7355.8341 289.4474 -9053.4996 -7355.8341 289.4474 -79.4090 -7.4265 30379.3751 -79.4090 -7.4265
ENERGY: 300000 7.6403 14.4325 20.4040 0.0000 -10688.3185 1463.9743 0.0000 0.0000 1762.0882 -7419.7792 300.4313 -9181.8674 -7351.4854 297.4356 199.0974 336.4284 29944.3347 -88.4575 -13.4598
ENERGY: 600000 11.9759 15.9359 18.5294 0.0000 -10561.5029 1460.3132 0.0000 0.0000 1756.5155 -7298.2331 299.4812 -9054.7486 -7330.6974 300.3863 585.7651 671.9982 29949.6444 54.5062 129.6390
ENERGY: 900000 4.6394 17.8552 21.3027 0.0000 -10728.1051 1480.2927 0.0000 0.0000 1800.2980 -7403.7170 306.9460 -9204.0150 -7345.7830 301.0326 575.7929 670.6841 29546.5414 -0.8735 75.4172
ENERGY: 1200000 10.9466 18.9477 20.1514 0.0000 -10471.4184 1370.9429 0.0000 0.0000 1763.0171 -7287.4126 300.5897 -9050.4297 -7342.7021 300.5411 -235.9283 -191.5330 30459.2646 -28.1112 44.6675
ENERGY: 1500000 8.0980 14.9394 19.3342 0.0000 -10553.6942 1441.6684 0.0000 0.0000 1773.8527 -7295.8015 302.4372 -9069.6542 -7342.2512 300.1304 18.3406 123.4900 30938.9558 -58.4562 16.8432
TCL: Running FEP window  11: Lambda1 0.4999999999999996 Lambda2 0.4499999999999996 [dLambda -0.04999999999999999]
TCL: Setting parameter firsttimestep to 0
TCL: Setting parameter alchLambda to 0.4999999999999996
Info: NONBONDED TABLE R-SQUARED SPACING: 0.0625
Info: NONBONDED TABLE SIZE: 705 POINTS
TCL: Setting parameter alchLambda2 to 0.4499999999999996
Info: NONBONDED TABLE R-SQUARED SPACING: 0.0625
Info: NONBONDED TABLE SIZE: 705 POINTS
TCL: Running for 1500000 steps
ETITLE: TS BOND ANGLE DIHED IMPRP ELECT VDW BOUNDARY MISC KINETIC TOTAL TEMP POTENTIAL TOTALAVG TEMPAVG PRESSURE GPRESSURE VOLUME PRESSAVG GPRESSAVG
ENERGY: 0 8.0980 14.9394 19.3342 0.0000 -10553.3462 1441.7088 0.0000 0.0000 1772.9626 -7296.3032 302.2854 -9069.2658 -7296.3032 302.2854 36.8544 111.9526 30938.9558 36.8544 111.9526
ENERGY: 300000 11.7457 18.1024 20.1204 0.0000 -10608.2221 1420.3839 0.0000 0.0000 1765.1549 -7372.7147 300.9542 -9137.8696 -7352.5595 300.2604 -45.1651 13.3102 30546.5120 -28.9086 39.3699
ENERGY: 600000 3.8328 15.4544 21.4757 0.0000 -10522.7505 1355.9617 0.0000 0.0000 1741.6038 -7384.4223 296.9388 -9126.0261 -7385.9379 299.1554 -525.4187 -401.9163 30171.0679 -52.5975 22.1586
ENERGY: 900000 11.9636 16.0792 19.4184 0.0000 -10518.0028 1376.3441 0.0000 0.0000 1751.8486 -7342.3489 298.6855 -9094.1975 -7381.5653 297.8711 -343.0470 -273.5676 30001.8374 -201.3761 -128.0076
ENERGY: 1200000 6.9612 21.2498 19.7486 0.0000 -10563.4372 1383.3130 0.0000 0.0000 1744.3690 -7387.7955 297.4103 -9132.1645 -7369.7187 297.2340 -4.1668 -34.4892 29989.9724 -222.7943 -160.7860
ENERGY: 1500000 3.8009 16.4143 20.7395 0.0000 -10593.3264 1478.0315 0.0000 0.0000 1813.8413 -7260.4990 309.2551 -9074.3403 -7357.4130 298.4529 781.5130 868.3720 30197.8838 -179.9859 -117.6207
TCL: Running FEP window  12: Lambda1 0.4499999999999996 Lambda2 0.39999999999999963 [dLambda -0.04999999999999999]
TCL: Setting parameter firsttimestep to 0
TCL: Setting parameter alchLambda to 0.4499999999999996
Info: NONBONDED TABLE R-SQUARED SPACING: 0.0625
Info: NONBONDED TABLE SIZE: 705 POINTS
TCL: Setting parameter alchLambda2 to 0.39999999999999963
Info: NONBONDED TABLE R-SQUARED SPACING: 0.0625
Info: NONBONDED TABLE SIZE: 705 POINTS
TCL: Running for 1500000 steps
ETITLE: TS BOND ANGLE DIHED IMPRP ELECT VDW BOUNDARY MISC KINETIC TOTAL TEMP POTENTIAL TOTALAVG TEMPAVG PRESSURE GPRESSURE VOLUME PRESSAVG GPRESSAVG
ENERGY: 0 3.8009 16.4143 20.7395 0.0000 -10593.3250 1478.3114 0.0000 0.0000 1812.9695 -7261.0894 309.1065 -9074.0590 -7261.0894 309.1065 785.0042 858.5832 30197.8838 785.0042 858.5832
ENERGY: 300000 5.8702 14.6003 18.5206 0.0000 -10627.5711 1396.1847 0.0000 0.0000 1787.7886 -7404.6066 304.8132 -9192.3952 -7317.3942 306.6500 -410.4247 -344.5600 30375.3510 -225.2930 -165.6735
ENERGY: 600000 5.3505 17.0206 17.1268 0.0000 -10631.9120 1444.1770 0.0000 0.0000 1731.3370 -7416.9000 295.1884 -9148.2371 -7351.6440 301.9401 189.7101 280.6288 29976.5019 -105.5751 -46.3408
ENERGY: 900000 10.8902 12.9747 20.8178 0.0000 -10502.6883 1370.9044 0.0000 0.0000 1739.1813 -7347.9197 296.5258 -9087.1010 -7342.5980 301.9175 -553.5353 -470.4631 30064.6690 7.7756 75.2631
ENERGY: 1200000 10.0385 14.5963 17.1593 0.0000 -10628.8222 1414.5215 0.0000 0.0000 1760.0981 -7412.4085 300.0920 -9172.5066 -7352.3038 301.3259 236.6576 327.1157 29541.9418 21.2063 94.7622
ENERGY: 1500000 9.4769 17.3929 17.1114 0.0000 -10518.1638 1408.4733 0.0000 0.0000 1823.2481 -7242.4612 310.8589 -9065.7093 -7344.3861 302.0273 -108.6681 -64.6560 30372.0456 -63.0610 7.9600
TCL: Running FEP window  13: Lambda1 0.39999999999999963 Lambda2 0.34999999999999964 [dLambda -0.04999999999999999]
TCL: Setting parameter firsttimestep to 0
TCL: Setting parameter alchLambda to 0.39999999999999963
Info: NONBONDED TABLE R-SQUARED SPACING: 0.0625
Info: NONBONDED TABLE SIZE: 705 POINTS
TCL: Setting parameter alchLambda2 to 0.34999999999999964
Info: NONBONDED TABLE R-SQUARED SPACING: 0.0625
Info: NONBONDED TABLE SIZE: 705 POINTS
TCL: Running for 1500000 steps
ETITLE: TS BOND ANGLE DIHED IMPRP ELECT VDW BOUNDARY MISC KINETIC TOTAL TEMP POTENTIAL TOTALAVG TEMPAVG PRESSURE GPRESSURE VOLUME PRESSAVG GPRESSAVG
ENERGY: 0 9.4769 17.3929 17.1114 0.0000 -10518.1644 1408.8475 0.0000 0.0000 1822.3869 -7242.9488 310.7121 -9065.3357 -7242.9488 310.7121 -144.5732 -73.2372 30372.0456 -144.5732 -73.2372
ENERGY: 300000 9.8149 14.7948 21.1167 0.0000 -10641.7948 1468.0011 0.0000 0.0000 1767.7933 -7360.2740 301.4040 -9128.0673 -7325.2512 302.4043 448.0958 494.6042 29981.6251 75.4703 138.8249
ENERGY: 600000 7.0149 18.0070 21.2711 0.0000 -10562.1987 1430.4848 0.0000 0.0000 1780.4675 -7304.9534 303.5650 -9085.4209 -7327.8535 301.5210 251.7088 269.3108 30085.2273 95.4108 161.6197
ENERGY: 900000 9.3451 11.2617 19.2407 0.0000 -10654.6152 1444.1355 0.0000 0.0000 1693.9244 -7476.7079 288.8096 -9170.6323 -7346.8004 300.5354 119.2611 250.5474 29823.4858 33.3460 108.7380
ENERGY: 1200000 12.3297 18.7152 21.0131 0.0000 -10540.3501 1402.9276 0.0000 0.0000 1720.9981 -7364.3663 293.4256 -9085.3644 -7350.5766 299.6543 -196.4580 -147.9281 30436.4843 64.3849 134.6136
ENERGY: 1500000 7.2189 21.7315 17.8734 0.0000 -10622.7571 1398.4275 0.0000 0.0000 1780.8125 -7396.6932 303.6238 -9177.5057 -7345.8771 300.4040 -155.7177 -51.2783 29625.6621 15.8592 92.7392
TCL: Running FEP window  14: Lambda1 0.34999999999999964 Lambda2 0.29999999999999966 [dLambda -0.04999999999999999]
TCL: Setting parameter firsttimestep to 0
TCL: Setting parameter alchLambda to 0.34999999999999964
Info: NONBONDED TABLE R-SQUARED SPACING: 0.0625
Info: NONBONDED TABLE SIZE: 705 POINTS
TCL: Setting parameter alchLambda2 to 0.29999999999999966
Info: NONBONDED TABLE R-SQUARED SPACING: 0.0625
Info: NONBONDED TABLE SIZE: 705 POINTS
TCL: Running for 1500000 steps
ETITLE: TS BOND ANGLE DIHED IMPRP ELECT VDW BOUNDARY MISC KINETIC TOTAL TEMP POTENTIAL TOTALAVG TEMPAVG PRESSURE GPRESSURE VOLUME PRESSAVG GPRESSAVG
ENERGY: 0 7.2189 21.7315 17.8734 0.0000 -10622.7572 1398.8865 0.0000 0.0000 1779.9789 -7397.0679 303.4817 -9177.0469 -7397.0679 303.4817 -160.6113 -58.4374 29625.6621 -160.6113 -58.4374
ENERGY: 300000 8.6268 14.0002 21.2498 0.0000 -10562.9511 1406.4402 0.0000 0.0000 1764.3905 -7348.2437 300.8239 -9112.6342 -7321.9781 305.3426 -156.9894 -103.2464 30406.1645 -98.2339 -47.3626
ENERGY: 600000 8.2784 12.7553 20.1577 0.0000 -10559.4993 1367.5355 0.0000 0.0000 1719.4208 -7431.3516 293.1567 -9150.7724 -7345.3007 301.3936 -234.8002 -133.6661 30039.8547 -112.7647 -69.4836
ENERGY: 900000 10.0151 16.8967 17.6037 0.0000 -10605.7489 1480.4815 0.0000 0.0000 1751.8688 -7328.8830 298.6890 -9080.7518 -7335.5071 301.3061 458.3434 525.1847 30003.3068 59.2589 106.7188
ENERGY: 1200000 7.2027 17.0678 18.3498 0.0000 -10586.2607 1427.8626 0.0000 0.0000 1752.0657 -7363.7121 298.7225 -9115.7778 -7353.1228 300.9173 -243.1770 -163.5083 30511.1808 16.4872 71.4853
ENERGY: 1500000 7.3538 14.5091 19.6487 0.0000 -10652.7135 1450.6958 0.0000 0.0000 1779.9335 -7380.5727 303.4739 -9160.5062 -7353.2758 301.6452 176.2775 187.6539 30097.6689 -15.2305 46.5305
TCL: Running FEP window  15: Lambda1 0.29999999999999966 Lambda2 0.24999999999999967 [dLambda -0.04999999999999999]
TCL: Setting parameter firsttimestep to 0
TCL: Setting parameter alchLambda to 0.29999999999999966
Info: NONBONDED TABLE R-SQUARED SPACING: 0.0625
Info: NONBONDED TABLE SIZE: 705 POINTS
TCL: Setting parameter alchLambda2 to 0.24999999999999967
Info: NONBONDED TABLE R-SQUARED SPACING: 0.0625
Info: NONBONDED TABLE SIZE: 705 POINTS
TCL: Running for 1500000 steps
ETITLE: TS BOND ANGLE DIHED IMPRP ELECT VDW BOUNDARY MISC KINETIC TOTAL TEMP POTENTIAL TOTALAVG TEMPAVG PRESSURE GPRESSURE VOLUME PRESSAVG GPRESSAVG
ENERGY: 0 7.3538 14.5091 19.6487 0.0000 -10652.7134 1450.7777 0.0000 0.0000 1779.0566 -7381.3676 303.3244 -9160.4242 -7381.3676 303.3244 109.3595 179.3544 30097.6689 109.3595 179.3544
ENERGY: 300000 11.7347 16.9287 20.0906 0.0000 -10552.2142 1394.9794 0.0000 0.0000 1717.2203 -7391.2605 292.7815 -9108.4808 -7336.2229 301.2207 -45.5239 81.8691 29511.3394 -246.4413 -167.9240
ENERGY: 600000 9.1645 16.5856 18.8505 0.0000 -10655.0756 1506.7019 0.0000 0.0000 1775.1896 -7328.5835 302.6651 -9103.7731 -7349.8502 300.4166 710.0885 799.1423 29935.2017 -148.4994 -77.9389
ENERGY: 900000 10.1367 12.8329 18.8862 0.0000 -10570.6220 1479.4007 0.0000 0.0000 1796.5311 -7252.8344 306.3038 -9049.3655 -7341.2981 300.2520 760.7622 786.5736 29949.5563 -45.7245 22.6556
ENERGY: 1200000 8.5080 14.8825 17.7602 0.0000 -10530.8661 1358.8061 0.0000 0.0000 1816.6305 -7314.2789 309.7307 -9130.9094 -7333.6059 301.3750 -498.2468 -411.1671 30178.6501 -55.1109 12.8086
ENERGY: 1500000 7.3074 12.6232 20.3982 0.0000 -10653.8592 1474.6152 0.0000 0.0000 1756.8571 -7382.0581 299.5395 -9138.9152 -7331.1213 301.9584 199.2672 264.3283 30292.1799 -55.9306 11.5901
TCL: Running FEP window  16: Lambda1 0.24999999999999967 Lambda2 0.19999999999999968 [dLambda -0.04999999999999999]
TCL: Setting parameter firsttimestep to 0
TCL: Setting parameter alchLambda to 0.24999999999999967
Info: NONBONDED TABLE R-SQUARED SPACING: 0.0625
Info: NONBONDED TABLE SIZE: 705 POINTS
TCL: Setting parameter alchLambda2 to 0.19999999999999968
Info: NONBONDED TABLE R-SQUARED SPACING: 0.0625
Info: NONBONDED TABLE SIZE: 705 POINTS
TCL: Running for 1500000 steps
ETITLE: TS BOND ANGLE DIHED IMPRP ELECT VDW BOUNDARY MISC KINETIC TOTAL TEMP POTENTIAL TOTALAVG TEMPAVG PRESSURE GPRESSURE VOLUME PRESSAVG GPRESSAVG
ENERGY: 0 7.3074 12.6232 20.3982 0.0000 -10653.8604 1475.3205 0.0000 0.0000 1755.9507 -7382.2604 299.3849 -9138.2111 -7382.2604 299.3849 189.7315 261.2906 30292.1799 189.7315 261.2906
ENERGY: 300000 9.4280 13.9678 18.3152 0.0000 -10686.5294 1536.9248 0.0000 0.0000 1779.4493 -7328.4444 303.3914 -9107.8937 -7316.2650 304.0091 1216.2933 1248.0378 29828.2565 143.8743 195.9629
ENERGY: 600000 6.5707 11.2436 17.9030 0.0000 -10500.2625 1335.7222 0.0000 0.0000 1738.1063 -7390.7166 296.3425 -9128.8230 -7344.5378 299.1446 -608.1897 -627.2707 30225.4732 -158.8812 -128.8447
ENERGY: 900000 7.6997 13.8921 20.0028 0.0000 -10533.3146 1305.7725 0.0000 0.0000 1742.0212 -7443.9263 297.0100 -9185.9474 -7354.5832 298.5592 -1426.2246 -1283.7346 30382.8100 -155.0675 -109.6389
ENERGY: 1200000 7.5599 19.3080 19.9043 0.0000 -10460.2644 1375.7493 0.0000 0.0000 1768.1458 -7269.5971 301.4642 -9037.7429 -7346.0972 299.1868 -530.9775 -456.2264 30327.5741 -130.4188 -77.6285
ENERGY: 1500000 6.8760 14.9339 21.2703 0.0000 -10484.9017 1421.8953 0.0000 0.0000 1740.1792 -7279.7471 296.6959 -9019.9263 -7345.3312 298.8530 214.1721 247.4854 30164.7702 -154.5580 -98.1160
TCL: Running FEP window  17: Lambda1 0.19999999999999968 Lambda2 0.1499999999999997 [dLambda -0.04999999999999999]
TCL: Setting parameter firsttimestep to 0
TCL: Setting parameter alchLambda to 0.19999999999999968
Info: NONBONDED TABLE R-SQUARED SPACING: 0.0625
Info: NONBONDED TABLE SIZE: 705 POINTS
TCL: Setting parameter alchLambda2 to 0.1499999999999997
Info: NONBONDED TABLE R-SQUARED SPACING: 0.0625
Info: NONBONDED TABLE SIZE: 705 POINTS
TCL: Running for 1500000 steps
ETITLE: TS BOND ANGLE DIHED IMPRP ELECT VDW BOUNDARY MISC KINETIC TOTAL TEMP POTENTIAL TOTALAVG TEMPAVG PRESSURE GPRESSURE VOLUME PRESSAVG GPRESSAVG
ENERGY: 0 6.8760 14.9339 21.2703 0.0000 -10484.9012 1422.5680 0.0000 0.0000 1739.2966 -7279.9565 296.5454 -9019.2531 -7279.9565 296.5454 153.2199 244.2650 30164.7702 153.2199 244.2650
ENERGY: 300000 10.3656 16.1663 17.4847 0.0000 -10404.1679 1331.2842 0.0000 0.0000 1732.5916 -7296.2755 295.4023 -9028.8671 -7332.0588 298.1209 -601.7686 -494.0871 30037.1999 -197.0143 -112.6052
ENERGY: 600000 11.7002 11.0108 16.8202 0.0000 -10452.5696 1376.2396 0.0000 0.0000 1712.7318 -7324.0668 292.0162 -9036.7986 -7353.1896 295.5660 -222.0578 -97.0206 30163.6854 -5.1005 90.7613
ENERGY: 900000 9.2765 20.3012 17.6475 0.0000 -10557.7055 1401.4978 0.0000 0.0000 1760.7170 -7348.2655 300.1976 -9108.9825 -7347.9148 298.2134 -19.4819 31.9055 29908.7264 -84.6247 -6.1091
ENERGY: 1200000 9.9622 20.1839 20.4504 0.0000 -10663.8115 1450.1427 0.0000 0.0000 1763.6291 -7399.4432 300.6941 -9163.0723 -7344.3403 298.8586 -150.0228 -88.6652 30234.1165 -119.7649 -41.9408
ENERGY: 1500000 5.4845 18.0747 20.8965 0.0000 -10708.7194 1527.0404 0.0000 0.0000 1704.4917 -7432.7316 290.6113 -9137.2233 -7345.8108 299.1428 1104.9714 1134.2103 29554.1340 1.6628 75.6745
TCL: Running FEP window  18: Lambda1 0.1499999999999997 Lambda2 0.09999999999999969 [dLambda -0.05 ]
TCL: Setting parameter firsttimestep to 0
TCL: Setting parameter alchLambda to 0.1499999999999997
Info: NONBONDED TABLE R-SQUARED SPACING: 0.0625
Info: NONBONDED TABLE SIZE: 705 POINTS
TCL: Setting parameter alchLambda2 to 0.09999999999999969
Info: NONBONDED TABLE R-SQUARED SPACING: 0.0625
Info: NONBONDED TABLE SIZE: 705 POINTS
TCL: Running for 1500000 steps
ETITLE: TS BOND ANGLE DIHED IMPRP ELECT VDW BOUNDARY MISC KINETIC TOTAL TEMP POTENTIAL TOTALAVG TEMPAVG PRESSURE GPRESSURE VOLUME PRESSAVG GPRESSAVG
ENERGY: 0 5.4844 18.0747 20.8965 0.0000 -10708.7194 1526.0169 0.0000 0.0000 1703.6518 -7434.5949 290.4681 -9138.2468 -7434.5949 290.4681 1032.5820 1119.2502 29554.1340 1032.5820 1119.2502
ENERGY: 300000 9.3092 13.7499 15.1421 0.0000 -10496.3270 1405.9754 0.0000 0.0000 1697.5812 -7354.5692 289.4331 -9052.1504 -7359.4892 293.2012 -309.2974 -223.8094 30397.2164 330.9963 397.4775
ENERGY: 600000 9.5920 14.6978 18.0690 0.0000 -10548.5385 1390.9095 0.0000 0.0000 1736.5940 -7378.6761 296.0847 -9115.2701 -7370.9106 295.2065 -473.3887 -407.9261 30258.4233 -0.5987 57.1108
ENERGY: 900000 6.6924 8.1422 18.7362 0.0000 -10593.7724 1432.5265 0.0000 0.0000 1739.9132 -7387.7620 296.6506 -9127.6751 -7364.6042 296.8514 -266.7390 -197.5831 30502.8507 42.4416 106.8973
ENERGY: 1200000 12.8482 22.8044 17.5947 0.0000 -10709.5623 1487.0369 0.0000 0.0000 1782.4315 -7386.8465 303.8998 -9169.2780 -7367.7712 297.5479 519.1482 604.1360 29660.3736 54.0609 118.7719
ENERGY: 1500000 5.6232 12.1864 20.0106 0.0000 -10701.7403 1496.8100 0.0000 0.0000 1724.2929 -7442.8173 293.9873 -9167.1101 -7377.5896 297.4798 723.7373 773.7207 29431.1833 79.7743 138.7718
TCL: Running FEP window  19: Lambda1 0.09999999999999969 Lambda2 0.049999999999999684 [dLambda -0.05 ]
TCL: Setting parameter firsttimestep to 0
TCL: Setting parameter alchLambda to 0.09999999999999969
Info: NONBONDED TABLE R-SQUARED SPACING: 0.0625
Info: NONBONDED TABLE SIZE: 705 POINTS
TCL: Setting parameter alchLambda2 to 0.049999999999999684
Info: NONBONDED TABLE R-SQUARED SPACING: 0.0625
Info: NONBONDED TABLE SIZE: 705 POINTS
TCL: Running for 1500000 steps
ETITLE: TS BOND ANGLE DIHED IMPRP ELECT VDW BOUNDARY MISC KINETIC TOTAL TEMP POTENTIAL TOTALAVG TEMPAVG PRESSURE GPRESSURE VOLUME PRESSAVG GPRESSAVG
ENERGY: 0 5.6231 12.1864 20.0106 0.0000 -10701.7400 1496.9639 0.0000 0.0000 1723.4190 -7443.5370 293.8383 -9166.9560 -7443.5370 293.8383 676.6862 765.7709 29431.1833 676.6862 765.7709
ENERGY: 300000 8.1726 17.3658 22.0719 0.0000 -10735.1081 1513.6726 0.0000 0.0000 1766.7560 -7407.0693 301.2272 -9173.8252 -7407.1409 296.4000 531.1878 596.0356 29928.3177 224.9518 303.8410
ENERGY: 600000 9.4473 15.9031 17.7813 0.0000 -10521.5085 1392.9337 0.0000 0.0000 1722.4607 -7362.9823 293.6750 -9085.4430 -7400.4167 297.6558 -269.8569 -232.5922 29857.2343 -155.4116 -74.9924
ENERGY: 900000 8.9519 11.5187 18.0960 0.0000 -10605.7475 1454.4184 0.0000 0.0000 1755.1649 -7357.5976 299.2509 -9112.7625 -7382.5484 298.7678 470.7250 532.2627 29548.7279 -162.0870 -85.4677
ENERGY: 1200000 12.7071 15.5040 19.3190 0.0000 -10601.0956 1464.0917 0.0000 0.0000 1773.4998 -7315.9741 302.3770 -9089.4738 -7369.6878 299.4019 193.4127 198.5492 29790.5304 -112.4757 -36.6258
ENERGY: 1500000 12.7515 16.6530 20.2517 0.0000 -10566.6426 1411.9146 0.0000 0.0000 1720.5138 -7384.5580 293.3430 -9105.0718 -7380.3541 298.5903 -612.9864 -478.1491 29749.2715 -131.5738 -52.9040
TCL: Running FEP window  20: Lambda1 0.049999999999999684 Lambda2 0.0    [dLambda -0.049999999999999684]
TCL: Setting parameter firsttimestep to 0
TCL: Setting parameter alchLambda to 0.049999999999999684
Info: NONBONDED TABLE R-SQUARED SPACING: 0.0625
Info: NONBONDED TABLE SIZE: 705 POINTS
TCL: Setting parameter alchLambda2 to 0.0
Info: NONBONDED TABLE R-SQUARED SPACING: 0.0625
Info: NONBONDED TABLE SIZE: 705 POINTS
TCL: Running for 1500000 steps
ETITLE: TS BOND ANGLE DIHED IMPRP ELECT VDW BOUNDARY MISC KINETIC TOTAL TEMP POTENTIAL TOTALAVG TEMPAVG PRESSURE GPRESSURE VOLUME PRESSAVG GPRESSAVG
ENERGY: 0 12.7516 16.6530 20.2517 0.0000 -10566.6424 1410.8577 0.0000 0.0000 1719.6563 -7386.4722 293.1968 -9106.1285 -7386.4722 293.1968 -580.2755 -487.5755 29749.2715 -580.2755 -487.5755
ENERGY: 300000 6.9794 12.1968 20.4408 0.0000 -10593.8268 1451.3787 0.0000 0.0000 1768.2321 -7334.5990 301.4789 -9102.8311 -7348.0213 300.1045 314.0412 394.4821 29794.3037 -232.0831 -154.3072
ENERGY: 600000 6.6375 18.9928 17.4069 0.0000 -10456.1269 1362.1858 0.0000 0.0000 1751.3349 -7299.5691 298.5979 -9050.9040 -7364.7885 299.1372 -383.3219 -293.7310 30072.6933 -313.2421 -249.2026
ENERGY: 900000 7.0273 18.9260 17.4990 0.0000 -10578.2035 1425.4640 0.0000 0.0000 1770.1675 -7339.1197 301.8088 -9109.2872 -7343.8915 300.4021 -219.5804 -125.4385 30145.2663 -206.5951 -136.6649
ENERGY: 1200000 9.9344 12.6810 21.8831 0.0000 -10665.5997 1468.7253 0.0000 0.0000 1796.5842 -7355.7916 306.3128 -9152.3758 -7355.6182 300.2645 -56.3817 -1.8853 29872.3180 -167.6670 -106.5074
ENERGY: 1500000 10.5364 17.7981 21.2740 0.0000 -10358.5896 1264.9296 0.0000 0.0000 1721.3813 -7322.6703 293.4909 -9044.0516 -7354.6298 300.1159 -1438.6526 -1291.3141 30498.4375 -241.0662 -171.2172
TCL: Exiting due to exit command.
