Info: SIMULATION PARAMETERS:
Info: TIMESTEP               2
Info: NUMBER OF STEPS        0
Info: STEPS PER CYCLE        10
Info: PERIODIC CELL BASIS 1  33.1394 0 0
Info: PERIODIC CELL BASIS 2  0 28.5098 0
Info: PERIODIC CELL BASIS 3  0 0 32.0924
Info: PERIODIC CELL CENTER   0 0 0
Info: WRAPPING WATERS AROUND PERIODIC BOUNDARIES ON OUTPUT.
Info: WRAPPING ALL CLUSTERS AROUND PERIODIC BOUNDARIES ON OUTPUT.
Info: FIRST LDB TIMESTEP     50
Info: LAST LDB TIMESTEP     -1
Info: HOM BACKGROUND SCALING 1
Info: PME BACKGROUND SCALING 1
Info: MIN ATOMS PER PATCH    40
Info: EMPTY PATCH LOAD       40 ATOMS
Info: VELOCITY FILE          mobley_2607611_equil.vel
Info: CENTER OF MASS MOVING INITIALLY? NO
Info: DIELECTRIC             1
Info: EXCLUDE                SCALED ONE-FOUR
Info: 1-4 ELECTROSTATICS SCALED BY 0.833333
Info: MODIFIED 1-4 VDW PARAMETERS WILL BE USED
Info: DCD FILENAME           mobley_2607611_prod.dcd
Info: DCD FREQUENCY          100000
Info: DCD FIRST STEP         100000
Info: DCD FILE WILL CONTAIN UNIT CELL DATA
Info: XST FILENAME           mobley_2607611_prod.xst
Info: XST FREQUENCY          100000
Info: NO VELOCITY DCD OUTPUT
Info: NO FORCE DCD OUTPUT
Info: OUTPUT FILENAME        mobley_2607611_prod
Info: BINARY OUTPUT FILES WILL BE USED
Info: RESTART FILENAME       mobley_2607611_prod.restart
Info: RESTART FREQUENCY      100000
Info: BINARY RESTART FILES WILL BE USED
Info: CUTOFF                 9
Info: PAIRLIST DISTANCE      11
Info: PAIRLIST SHRINK RATE   0.01
Info: PAIRLIST GROW RATE     0.01
Info: PAIRLIST TRIGGER       0.3
Info: PAIRLISTS PER CYCLE    2
Info: PAIRLISTS ENABLED
Info: MARGIN                 2
Info: HYDROGEN GROUP CUTOFF  2.5
Info: PATCH DIMENSION        15.5
Info: ENERGY OUTPUT STEPS    100000
Info: ENERGY EVALUATION STEPS    100000
Info: OUTPUT ENERGY PRECISION 4
Info: CROSSTERM ENERGY INCLUDED IN DIHEDRAL
Info: TIMING OUTPUT STEPS    1000000
Info: PRESSURE OUTPUT STEPS  100000
Info: ALCHEMICAL FEP ON
Info: FEP CURRENT LAMBDA VALUE     0
Info: FEP COMPARISON LAMBDA VALUE  0.05
Info: FEP INTRA-ALCHEMICAL NON-BONDED INTERACTIONS WILL BE RETAINED
Info: FEP INTRA-ALCHEMICAL BONDED INTERACTIONS WILL BE RETAINED
Info: FEP VDW SHIFTING COEFFICIENT 5
Info: FEP ELEC. ACTIVE FOR ANNIHILATED PARTICLES BETWEEN LAMBDA = 0 AND LAMBDA = 0.5
Info: FEP ELEC. ACTIVE FOR EXNIHILATED PARTICLES BETWEEN LAMBDA = 0.5 AND LAMBDA = 1
Info: FEP VDW ACTIVE FOR ANNIHILATED PARTICLES BETWEEN LAMBDA = 0 AND LAMBDA = 1
Info: FEP VDW ACTIVE FOR EXNIHILATED PARTICLES BETWEEN LAMBDA = 0 AND LAMBDA = 1
Info: FEP BOND ACTIVE FOR ANNIHILATED PARTICLES BETWEEN LAMBDA = 1 AND LAMBDA = 1
Info: FEP BOND ACTIVE FOR EXNIHILATED PARTICLES BETWEEN LAMBDA = 0 AND LAMBDA = 0
Info: LANGEVIN DYNAMICS ACTIVE
Info: LANGEVIN TEMPERATURE   300
Info: LANGEVIN USING BBK INTEGRATOR
Info: LANGEVIN DAMPING COEFFICIENT IS 1 INVERSE PS
Info: LANGEVIN DYNAMICS APPLIED TO HYDROGENS
Info: LANGEVIN PISTON PRESSURE CONTROL ACTIVE
Info:        TARGET PRESSURE IS 1.01325 BAR
Info:     OSCILLATION PERIOD IS 50 FS
Info:             DECAY TIME IS 25 FS
Info:     PISTON TEMPERATURE IS 300 K
Info:       PRESSURE CONTROL IS GROUP-BASED
Info:    INITIAL STRAIN RATE IS -0.000401417 -0.000401417 -0.000401417
Info:       CELL FLUCTUATION IS ISOTROPIC
Info: PARTICLE MESH EWALD (PME) ACTIVE
Info: PME TOLERANCE               1e-06
Info: PME EWALD COEFFICIENT       0.348832
Info: PME INTERPOLATION ORDER     4
Info: PME GRID DIMENSIONS         36 32 36
Info: PME MAXIMUM GRID SPACING    1
Info: PME CALCULATION WILL BE PERFORMED ON GPU
Info: FULL ELECTROSTATIC EVALUATION FREQUENCY      2
Info: USING VERLET I (r-RESPA) MTS SCHEME.
Info: C1 SPLITTING OF LONG RANGE ELECTROSTATICS
Info: PLACING ATOMS IN PATCHES BY HYDROGEN GROUPS
Info: RIGID BONDS TO HYDROGEN : ALL
Info:         ERROR TOLERANCE : 1e-08
Info:          MAX ITERATIONS : 100
Info: RIGID WATER USING SETTLE ALGORITHM
Info: RANDOM NUMBER SEED     1744031661
Info: USE HYDROGEN BONDS?    NO
Info: Using AMBER format force field!
Info: AMBER PARM FILE        mobley_2607611.prmtop
Info: COORDINATE PDB         mobley_2607611.pdb
Info: Exclusions will be read from PARM file!
Info: SCNB (VDW SCALING)     2
Info: USING ARITHMETIC MEAN TO COMBINE L-J SIGMA PARAMETERS
Info: BINARY COORDINATES     mobley_2607611_equil.coor
Info: SUMMARY OF PARAMETERS:
Info: 9 BONDS
Info: 12 ANGLES
Info:   12 HARMONIC
Info:   0 COSINE-BASED
Info: 20 DIHEDRAL
Info: 0 IMPROPER
Info: 0 CROSSTERM
Info: 0 VDW
Info: 36 VDW_PAIRS
Info: 0 NBTHOLE_PAIRS
Info: To read alchdata from file: mobley_2607611.pdb
Info: To read alchflag data from column: 5
Info: STRUCTURE SUMMARY:
Info: 2939 ATOMS
Info: 2938 BONDS
Info: 46 ANGLES
Info: 75 DIHEDRALS
Info: 0 IMPROPERS
Info: 0 CROSSTERMS
Info: 3040 EXCLUSIONS
Info: 2929 RIGID BONDS
Info: ALCH: 0 ATOMS TO DISAPPEAR IN FINAL STATE
Info: ALCH: 26 ATOMS TO APPEAR IN FINAL STATE
Info: 5888 DEGREES OF FREEDOM
Info: 981 HYDROGEN GROUPS
Info: 4 ATOMS IN LARGEST HYDROGEN GROUP
Info: 981 MIGRATION GROUPS
Info: 4 ATOMS IN LARGEST MIGRATION GROUP
Info: TOTAL MASS = 17637.7 amu
Info: TOTAL CHARGE = -0.000200011 e
Info: MASS DENSITY = 0.965964 g/cm^3
Info: ATOM DENSITY = 0.09693 atoms/A^3
Info: ADDED 0 IMPLICIT EXCLUSIONS
Info: NONBONDED TABLE R-SQUARED SPACING: 0.0625
Info: NONBONDED TABLE SIZE: 705 POINTS
Info: REMOVING COM VELOCITY 0.0462605 -0.13011 0.0793896
Info: Use 3D box decompostion in PME FFT.
Info: Updated CUDA force table with 4096 elements.
Info: Updated CUDA LJ table with 8 x 8 elements.
Info: Found 29 unique exclusion lists needing 104 bytes
TCL: Running for 1500000 steps
ETITLE: TS BOND ANGLE DIHED IMPRP ELECT VDW BOUNDARY MISC KINETIC TOTAL TEMP POTENTIAL TOTALAVG TEMPAVG PRESSURE GPRESSURE VOLUME PRESSAVG GPRESSAVG
ENERGY: 0 1.7294 14.8499 8.7280 0.0000 -10702.2997 1506.1596 0.0000 0.0000 1734.1878 -7436.6450 296.4277 -9170.8328 -7436.6450 296.4277 441.0109 520.8730 30320.8494 441.0109 520.8730
ENERGY: 300000 2.8976 8.8187 9.5787 0.0000 -10536.5105 1393.4878 0.0000 0.0000 1832.0183 -7289.7095 313.1500 -9121.7278 -7389.4081 301.9945 -329.2030 -222.3384 30133.6658 76.0530 165.2990
ENERGY: 600000 4.5239 8.0677 7.8736 0.0000 -10508.4221 1358.0823 0.0000 0.0000 1799.9881 -7329.8865 307.6750 -9129.8746 -7382.2160 301.6601 -444.4867 -335.0654 29961.3362 -53.5961 36.1335
ENERGY: 900000 2.1877 9.4974 8.0229 0.0000 -10647.8623 1374.1482 0.0000 0.0000 1731.3083 -7522.6978 295.9354 -9254.0060 -7416.5982 300.1885 -718.6061 -650.3196 30111.5755 -167.8410 -84.4106
ENERGY: 1200000 1.8699 15.7708 7.2308 0.0000 -10595.6495 1415.9427 0.0000 0.0000 1804.6925 -7350.1427 308.4791 -9154.8352 -7418.0342 300.9809 -383.0691 -324.1133 30397.1787 -190.2896 -108.9195
ENERGY: 1500000 3.3333 11.6974 9.3738 0.0000 -10597.2240 1388.3847 0.0000 0.0000 1755.6136 -7428.8213 300.0900 -9184.4348 -7409.3841 301.0844 -431.2004 -420.0312 30095.4342 -193.0440 -111.1206
TCL: Running FEP window   2: Lambda1 0.05   Lambda2 0.1    [dLambda 0.05  ]
TCL: Setting parameter firsttimestep to 0
TCL: Setting parameter alchLambda to 0.05
Info: NONBONDED TABLE R-SQUARED SPACING: 0.0625
Info: NONBONDED TABLE SIZE: 705 POINTS
TCL: Setting parameter alchLambda2 to 0.1
Info: NONBONDED TABLE R-SQUARED SPACING: 0.0625
Info: NONBONDED TABLE SIZE: 705 POINTS
TCL: Running for 1500000 steps
ETITLE: TS BOND ANGLE DIHED IMPRP ELECT VDW BOUNDARY MISC KINETIC TOTAL TEMP POTENTIAL TOTALAVG TEMPAVG PRESSURE GPRESSURE VOLUME PRESSAVG GPRESSAVG
ENERGY: 0 3.3333 11.6974 9.3738 0.0000 -10597.2243 1388.7573 0.0000 0.0000 1754.7374 -7429.3251 299.9402 -9184.0625 -7429.3251 299.9402 -482.0762 -411.7155 30095.4342 -482.0762 -411.7155
ENERGY: 300000 4.6469 9.9200 7.2344 0.0000 -10624.1918 1466.7768 0.0000 0.0000 1775.7183 -7359.8953 303.5265 -9135.6136 -7454.8967 297.5767 517.6826 597.6792 29829.7238 -248.3626 -163.2729
ENERGY: 600000 1.5752 11.0654 8.0001 0.0000 -10606.4950 1428.4856 0.0000 0.0000 1740.3451 -7417.0236 297.4801 -9157.3687 -7443.8680 298.2276 29.9644 78.4346 30000.8271 15.2286 94.8240
ENERGY: 900000 1.5236 10.6031 8.9428 0.0000 -10515.6799 1366.7190 0.0000 0.0000 1713.5906 -7414.3008 292.9069 -9127.8914 -7427.2092 300.2356 -599.0996 -625.3573 30670.5396 6.7117 71.9405
ENERGY: 1200000 3.4484 15.6063 7.1695 0.0000 -10723.3577 1480.4621 0.0000 0.0000 1746.3246 -7470.3468 298.5022 -9216.6714 -7433.7267 299.1756 626.2108 688.1744 29405.2239 -0.1314 63.1078
ENERGY: 1500000 3.0001 9.6606 7.4018 0.0000 -10518.5536 1348.7169 0.0000 0.0000 1834.8815 -7314.8927 313.6394 -9149.7742 -7422.2116 300.8961 -682.5534 -600.9429 30570.5981 -49.9203 15.3249
TCL: Running FEP window   3: Lambda1 0.1    Lambda2 0.15000000000000002 [dLambda 0.05000000000000002]
TCL: Setting parameter firsttimestep to 0
TCL: Setting parameter alchLambda to 0.1
Info: NONBONDED TABLE R-SQUARED SPACING: 0.0625
Info: NONBONDED TABLE SIZE: 705 POINTS
TCL: Setting parameter alchLambda2 to 0.15000000000000002
Info: NONBONDED TABLE R-SQUARED SPACING: 0.0625
Info: NONBONDED TABLE SIZE: 705 POINTS
TCL: Running for 1500000 steps
ETITLE: TS BOND ANGLE DIHED IMPRP ELECT VDW BOUNDARY MISC KINETIC TOTAL TEMP POTENTIAL TOTALAVG TEMPAVG PRESSURE GPRESSURE VOLUME PRESSAVG GPRESSAVG
ENERGY: 0 3.0002 9.6606 7.4018 0.0000 -10518.5529 1351.4915 0.0000 0.0000 1834.0282 -7312.9707 313.4935 -9146.9989 -7312.9707 313.4935 -673.9591 -593.1323 30570.5981 -673.9591 -593.1323
ENERGY: 300000 1.9973 15.3415 8.8753 0.0000 -10678.2065 1427.9948 0.0000 0.0000 1768.0720 -7455.9257 302.2195 -9223.9976 -7399.2971 304.3121 -42.1892 -53.0386 29705.4247 -462.7817 -400.8815
ENERGY: 600000 2.9524 11.1818 7.8889 0.0000 -10706.0830 1464.4669 0.0000 0.0000 1702.9574 -7516.6355 291.0894 -9219.5930 -7436.3726 301.9414 272.9541 309.6117 30101.3429 -184.7810 -128.9655
ENERGY: 900000 2.8616 15.5687 9.4206 0.0000 -10617.9058 1428.5952 0.0000 0.0000 1762.3139 -7399.1458 301.2353 -9161.4596 -7422.3561 302.6061 35.0820 19.8346 30093.3026 -109.1697 -58.3006
ENERGY: 1200000 2.5584 10.9612 8.4517 0.0000 -10652.0031 1423.2690 0.0000 0.0000 1751.5236 -7455.2392 299.3909 -9206.7628 -7431.8479 302.2055 -39.3451 10.9559 30018.1549 -130.9121 -83.1510
ENERGY: 1500000 2.4034 16.0014 9.7182 0.0000 -10600.0587 1399.2454 0.0000 0.0000 1783.1496 -7389.5406 304.7968 -9172.6903 -7435.5859 300.7253 -264.2807 -191.7138 30021.1024 -105.0248 -57.7957
TCL: Running FEP window   4: Lambda1 0.15000000000000002 Lambda2 0.2    [dLambda 0.04999999999999999]
TCL: Setting parameter firsttimestep to 0
TCL: Setting parameter alchLambda to 0.15000000000000002
Info: NONBONDED TABLE R-SQUARED SPACING: 0.0625
Info: NONBONDED TABLE SIZE: 705 POINTS
TCL: Setting parameter alchLambda2 to 0.2
Info: NONBONDED TABLE R-SQUARED SPACING: 0.0625
Info: NONBONDED TABLE SIZE: 705 POINTS
TCL: Running for 1500000 steps
ETITLE: TS BOND ANGLE DIHED IMPRP ELECT VDW BOUNDARY MISC KINETIC TOTAL TEMP POTENTIAL TOTALAVG TEMPAVG PRESSURE GPRESSURE VOLUME PRESSAVG GPRESSAVG
ENERGY: 0 2.4034 16.0014 9.7182 0.0000 -10600.0577 1399.9432 0.0000 0.0000 1782.2525 -7389.7389 304.6434 -9171.9914 -7389.7389 304.6434 -265.7307 -185.2447 30021.1024 -265.7307 -185.2447
ENERGY: 300000 1.8130 7.3717 7.6932 0.0000 -10614.7996 1364.3499 0.0000 0.0000 1754.8259 -7478.7458 299.9553 -9233.5717 -7402.7679 302.8750 -870.1654 -798.9454 30381.2326 -136.7897 -61.6867
ENERGY: 600000 7.8657 13.7299 10.0370 0.0000 -10780.2290 1513.4682 0.0000 0.0000 1733.2314 -7501.8968 296.2642 -9235.1282 -7419.1646 301.0888 353.3234 358.0822 29990.0503 -98.7257 -36.3008
ENERGY: 900000 3.4479 9.1491 9.8755 0.0000 -10531.8370 1407.2321 0.0000 0.0000 1787.9612 -7314.1712 305.6192 -9102.1324 -7400.1816 301.0518 -271.3932 -137.4096 30495.8759 -36.9147 29.3565
ENERGY: 1200000 5.6043 11.8403 8.9780 0.0000 -10634.3083 1437.6433 0.0000 0.0000 1820.3042 -7349.9382 311.1477 -9170.2424 -7409.0018 300.9562 319.0925 392.3693 30168.6512 -85.3364 -16.1923
ENERGY: 1500000 4.5042 12.3443 7.2403 0.0000 -10693.1152 1439.9933 0.0000 0.0000 1839.4329 -7389.6001 314.4174 -9229.0330 -7410.0563 302.1194 185.4876 246.8742 29746.0656 -108.9124 -36.2405
TCL: Running FEP window   5: Lambda1 0.2    Lambda2 0.25   [dLambda 0.04999999999999999]
TCL: Setting parameter firsttimestep to 0
TCL: Setting parameter alchLambda to 0.2
Info: NONBONDED TABLE R-SQUARED SPACING: 0.0625
Info: NONBONDED TABLE SIZE: 705 POINTS
TCL: Setting parameter alchLambda2 to 0.25
Info: NONBONDED TABLE R-SQUARED SPACING: 0.0625
Info: NONBONDED TABLE SIZE: 705 POINTS
TCL: Running for 1500000 steps
ETITLE: TS BOND ANGLE DIHED IMPRP ELECT VDW BOUNDARY MISC KINETIC TOTAL TEMP POTENTIAL TOTALAVG TEMPAVG PRESSURE GPRESSURE VOLUME PRESSAVG GPRESSAVG
ENERGY: 0 4.5042 12.3443 7.2403 0.0000 -10693.1149 1441.2968 0.0000 0.0000 1838.5506 -7389.1786 314.2666 -9227.7292 -7389.1786 314.2666 190.5591 260.7824 29746.0656 190.5591 260.7824
ENERGY: 300000 1.6522 10.0839 7.2841 0.0000 -10709.6993 1448.2665 0.0000 0.0000 1741.8482 -7500.5643 297.7371 -9242.4125 -7415.2873 303.3577 350.5970 388.3193 29543.2816 278.5129 343.6739
ENERGY: 600000 2.7749 12.7890 8.7273 0.0000 -10648.0803 1426.9900 0.0000 0.0000 1744.3614 -7452.4379 298.1666 -9196.7993 -7434.5140 303.0531 -90.8377 73.6111 29830.5228 204.6055 280.4906
ENERGY: 900000 1.6498 11.9517 6.8987 0.0000 -10565.1486 1369.3359 0.0000 0.0000 1754.2697 -7421.0427 299.8603 -9175.3124 -7424.3028 302.3844 -263.7412 -190.1980 29832.7828 126.1250 200.6696
ENERGY: 1200000 1.6051 15.4620 8.9941 0.0000 -10627.9569 1396.4124 0.0000 0.0000 1751.1234 -7454.3600 299.3225 -9205.4833 -7416.9867 301.8268 -277.6856 -241.9221 30008.0418 28.7918 100.2713
ENERGY: 1500000 0.8781 13.1045 8.0292 0.0000 -10574.8223 1374.6801 0.0000 0.0000 1770.9482 -7407.1822 302.7112 -9178.1304 -7418.0101 301.4921 -507.5553 -450.7563 30322.0538 -54.9806 13.9302
TCL: Running FEP window   6: Lambda1 0.25   Lambda2 0.3    [dLambda 0.04999999999999999]
TCL: Setting parameter firsttimestep to 0
TCL: Setting parameter alchLambda to 0.25
Info: NONBONDED TABLE R-SQUARED SPACING: 0.0625
Info: NONBONDED TABLE SIZE: 705 POINTS
TCL: Setting parameter alchLambda2 to 0.3
Info: NONBONDED TABLE R-SQUARED SPACING: 0.0625
Info: NONBONDED TABLE SIZE: 705 POINTS
TCL: Running for 1500000 steps
ETITLE: TS BOND ANGLE DIHED IMPRP ELECT VDW BOUNDARY MISC KINETIC TOTAL TEMP POTENTIAL TOTALAVG TEMPAVG PRESSURE GPRESSURE VOLUME PRESSAVG GPRESSAVG
ENERGY: 0 0.8781 13.1045 8.0292 0.0000 -10574.8216 1374.8148 0.0000 0.0000 1770.0573 -7407.9377 302.5589 -9177.9950 -7407.9377 302.5589 -540.6565 -442.2996 30322.0538 -540.6565 -442.2996
ENERGY: 300000 2.1328 14.3237 8.2810 0.0000 -10706.8343 1465.3388 0.0000 0.0000 1762.0168 -7454.7412 301.1845 -9216.7579 -7432.9024 302.1439 215.5306 327.1121 30300.8208 -81.0830 -7.7097
ENERGY: 600000 4.2337 15.4844 6.8739 0.0000 -10695.6117 1474.4204 0.0000 0.0000 1762.4837 -7432.1157 301.2643 -9194.5993 -7459.3892 298.6850 353.2415 441.1985 29859.3227 -59.0736 6.7770
ENERGY: 900000 1.5272 14.7329 9.3963 0.0000 -10533.8968 1324.2637 0.0000 0.0000 1802.4066 -7381.5702 308.0884 -9183.9767 -7453.4892 299.6413 -733.9222 -647.0180 29970.1925 -117.4600 -54.3953
ENERGY: 1200000 2.8883 12.5431 6.8377 0.0000 -10608.9784 1363.7914 0.0000 0.0000 1731.5720 -7491.3457 295.9805 -9222.9177 -7449.2049 300.2670 -943.4414 -877.5811 30528.0671 -87.1447 -16.4357
ENERGY: 1500000 2.6730 11.3273 9.2193 0.0000 -10549.2648 1425.3171 0.0000 0.0000 1803.2176 -7297.5105 308.2270 -9100.7281 -7437.8314 300.7744 488.5442 540.9129 29859.8230 -121.4495 -48.0881
TCL: Running FEP window   7: Lambda1 0.3    Lambda2 0.35   [dLambda 0.04999999999999999]
TCL: Setting parameter firsttimestep to 0
TCL: Setting parameter alchLambda to 0.3
Info: NONBONDED TABLE R-SQUARED SPACING: 0.0625
Info: NONBONDED TABLE SIZE: 705 POINTS
TCL: Setting parameter alchLambda2 to 0.35
Info: NONBONDED TABLE R-SQUARED SPACING: 0.0625
Info: NONBONDED TABLE SIZE: 705 POINTS
TCL: Running for 1500000 steps
ETITLE: TS BOND ANGLE DIHED IMPRP ELECT VDW BOUNDARY MISC KINETIC TOTAL TEMP POTENTIAL TOTALAVG TEMPAVG PRESSURE GPRESSURE VOLUME PRESSAVG GPRESSAVG
ENERGY: 0 2.6730 11.3273 9.2193 0.0000 -10549.2642 1425.4918 0.0000 0.0000 1802.3439 -7298.2090 308.0777 -9100.5529 -7298.2090 308.0777 457.5739 547.8848 29859.8230 457.5739 547.8848
ENERGY: 300000 1.0297 12.2070 6.3342 0.0000 -10726.8857 1533.9200 0.0000 0.0000 1748.9099 -7424.4848 298.9441 -9173.3947 -7450.0349 302.1898 1112.2739 1152.3125 29672.0459 317.2883 374.4403
ENERGY: 600000 2.9355 13.7473 10.5145 0.0000 -10707.2485 1466.4542 0.0000 0.0000 1780.6072 -7432.9899 304.3622 -9213.5970 -7452.6293 301.0329 55.5891 182.2100 29743.4642 324.8500 386.8448
ENERGY: 900000 4.0882 13.9673 8.5795 0.0000 -10589.8126 1399.3822 0.0000 0.0000 1766.8864 -7396.9091 302.0169 -9163.7954 -7424.9235 301.4599 -260.6102 -175.9924 30256.2608 59.6776 126.0492
ENERGY: 1200000 7.6304 14.5069 7.9231 0.0000 -10665.5246 1438.9897 0.0000 0.0000 1727.0844 -7469.3901 295.2135 -9196.4745 -7424.7033 301.2928 104.4936 201.9925 29779.8647 2.8180 71.4776
ENERGY: 1500000 4.4259 13.0440 7.6795 0.0000 -10662.1302 1426.7805 0.0000 0.0000 1797.0831 -7413.1171 307.1785 -9210.2003 -7420.7320 301.4733 78.0921 160.7386 29732.3570 -47.2117 28.0443
TCL: Running FEP window   8: Lambda1 0.35   Lambda2 0.39999999999999997 [dLambda 0.04999999999999999]
TCL: Setting parameter firsttimestep to 0
TCL: Setting parameter alchLambda to 0.35
Info: NONBONDED TABLE R-SQUARED SPACING: 0.0625
Info: NONBONDED TABLE SIZE: 705 POINTS
TCL: Setting parameter alchLambda2 to 0.39999999999999997
Info: NONBONDED TABLE R-SQUARED SPACING: 0.0625
Info: NONBONDED TABLE SIZE: 705 POINTS
TCL: Running for 1500000 steps
ETITLE: TS BOND ANGLE DIHED IMPRP ELECT VDW BOUNDARY MISC KINETIC TOTAL TEMP POTENTIAL TOTALAVG TEMPAVG PRESSURE GPRESSURE VOLUME PRESSAVG GPRESSAVG
ENERGY: 0 4.4259 13.0440 7.6795 0.0000 -10662.1296 1426.6624 0.0000 0.0000 1796.1808 -7414.1370 307.0242 -9210.3178 -7414.1370 307.0242 74.1136 168.0584 29732.3570 74.1136 168.0584
ENERGY: 300000 5.2801 13.1311 7.2584 0.0000 -10648.3653 1457.3858 0.0000 0.0000 1790.5697 -7374.7400 306.0651 -9165.3098 -7418.7339 303.1736 81.0676 139.7531 30175.7523 225.5522 259.8136
ENERGY: 600000 3.5657 9.9049 7.0030 0.0000 -10764.2284 1496.2720 0.0000 0.0000 1740.8199 -7506.6628 297.5613 -9247.4827 -7454.9331 300.4242 427.8581 492.1805 30115.8838 182.0059 215.3721
ENERGY: 900000 1.6527 11.0963 7.8948 0.0000 -10677.3888 1470.4850 0.0000 0.0000 1787.6673 -7398.5928 305.5690 -9186.2601 -7438.8114 301.8400 507.7707 516.1270 29902.1195 231.1428 272.4009
ENERGY: 1200000 3.7191 11.3305 7.8805 0.0000 -10720.1285 1438.6474 0.0000 0.0000 1828.7668 -7429.7842 312.5942 -9258.5510 -7440.7855 301.2626 137.3276 219.9549 29575.3802 183.8006 232.5705
ENERGY: 1500000 1.3441 9.1388 9.8982 0.0000 -10541.8033 1414.3233 0.0000 0.0000 1710.2520 -7396.8469 292.3363 -9107.0989 -7439.1892 300.4916 -160.2349 -103.5847 30598.7641 130.6517 179.6155
TCL: Running FEP window   9: Lambda1 0.39999999999999997 Lambda2 0.44999999999999996 [dLambda 0.04999999999999999]
TCL: Setting parameter firsttimestep to 0
TCL: Setting parameter alchLambda to 0.39999999999999997
Info: NONBONDED TABLE R-SQUARED SPACING: 0.0625
Info: NONBONDED TABLE SIZE: 705 POINTS
TCL: Setting parameter alchLambda2 to 0.44999999999999996
Info: NONBONDED TABLE R-SQUARED SPACING: 0.0625
Info: NONBONDED TABLE SIZE: 705 POINTS
TCL: Running for 1500000 steps
ETITLE: TS BOND ANGLE DIHED IMPRP ELECT VDW BOUNDARY MISC KINETIC TOTAL TEMP POTENTIAL TOTALAVG TEMPAVG PRESSURE GPRESSURE VOLUME PRESSAVG GPRESSAVG
ENERGY: 0 1.3441 9.1388 9.8982 0.0000 -10541.8032 1414.9970 0.0000 0.0000 1709.3986 -7397.0266 292.1904 -9106.4252 -7397.0266 292.1904 -172.8796 -92.1155 30598.7641 -172.8796 -92.1155
ENERGY: 300000 3.1792 17.1555 7.5882 0.0000 -10602.6651 1486.5578 0.0000 0.0000 1763.7849 -7324.3996 301.4867 -9088.1845 -7383.2806 301.9703 387.3740 443.9961 30625.8372 140.7079 219.8277
ENERGY: 600000 1.9552 7.3776 6.9523 0.0000 -10549.3201 1367.2915 0.0000 0.0000 1750.7200 -7415.0234 299.2535 -9165.7434 -7397.3237 300.5148 -482.3850 -428.3004 30380.9100 -124.8739 -57.5625
ENERGY: 900000 2.5356 11.1620 6.9367 0.0000 -10585.3044 1391.0853 0.0000 0.0000 1753.8805 -7419.7044 299.7938 -9173.5849 -7405.2251 300.1299 -494.3861 -420.9276 30560.6825 -189.5464 -130.7455
ENERGY: 1200000 5.1229 10.5296 9.4139 0.0000 -10722.2405 1480.8622 0.0000 0.0000 1752.7914 -7463.5205 299.6076 -9216.3120 -7401.5233 301.1341 283.2763 353.4259 30208.5679 -199.0940 -142.0400
ENERGY: 1500000 2.5035 7.0576 8.2051 0.0000 -10882.6958 1648.2855 0.0000 0.0000 1721.1969 -7495.4472 294.2071 -9216.6441 -7404.6407 301.0587 1935.4731 1977.2532 29529.5197 10.3925 67.4229
TCL: Running FEP window  10: Lambda1 0.44999999999999996 Lambda2 0.49999999999999994 [dLambda 0.04999999999999999]
TCL: Setting parameter firsttimestep to 0
TCL: Setting parameter alchLambda to 0.44999999999999996
Info: NONBONDED TABLE R-SQUARED SPACING: 0.0625
Info: NONBONDED TABLE SIZE: 705 POINTS
TCL: Setting parameter alchLambda2 to 0.49999999999999994
Info: NONBONDED TABLE R-SQUARED SPACING: 0.0625
Info: NONBONDED TABLE SIZE: 705 POINTS
TCL: Running for 1500000 steps
ETITLE: TS BOND ANGLE DIHED IMPRP ELECT VDW BOUNDARY MISC KINETIC TOTAL TEMP POTENTIAL TOTALAVG TEMPAVG PRESSURE GPRESSURE VOLUME PRESSAVG GPRESSAVG
ENERGY: 0 2.5035 7.0576 8.2051 0.0000 -10882.6961 1649.4299 0.0000 0.0000 1720.3416 -7495.1584 294.0609 -9215.5000 -7495.1584 294.0609 1907.0840 1996.2000 29529.5197 1907.0840 1996.2000
ENERGY: 300000 2.1615 14.3846 5.8571 0.0000 -10595.1958 1395.4090 0.0000 0.0000 1736.7220 -7440.6616 296.8608 -9177.3835 -7457.5788 295.5090 -307.3914 -238.7280 30403.1894 -43.4622 36.5913
ENERGY: 600000 2.9543 10.4254 7.8236 0.0000 -10530.2229 1421.6114 0.0000 0.0000 1730.7886 -7356.6196 295.8466 -9087.4082 -7419.3867 296.2139 -90.8069 41.6678 30489.8812 -215.4255 -125.3424
ENERGY: 900000 1.5140 7.7235 8.6204 0.0000 -10672.9451 1412.6258 0.0000 0.0000 1773.2825 -7469.1789 303.1102 -9242.4614 -7399.9551 299.3477 39.8519 47.5544 29812.5829 -276.3504 -208.3999
ENERGY: 1200000 3.0317 9.4861 8.2461 0.0000 -10624.0834 1402.8959 0.0000 0.0000 1694.5159 -7505.9077 289.6465 -9200.4236 -7415.5573 298.2920 -420.5265 -337.9162 30365.6728 -210.5692 -143.1583
ENERGY: 1500000 1.5228 18.2256 8.8244 0.0000 -10749.7416 1494.4730 0.0000 0.0000 1777.8023 -7448.8936 303.8827 -9226.6959 -7424.2206 298.4214 469.6611 504.2306 30135.9151 -72.5917 -11.7001
TCL: Running FEP window  11: Lambda1 0.49999999999999994 Lambda2 0.5499999999999999 [dLambda 0.04999999999999999]
TCL: Setting parameter firsttimestep to 0
TCL: Setting parameter alchLambda to 0.49999999999999994
Info: NONBONDED TABLE R-SQUARED SPACING: 0.0625
Info: NONBONDED TABLE SIZE: 705 POINTS
TCL: Setting parameter alchLambda2 to 0.5499999999999999
Info: NONBONDED TABLE R-SQUARED SPACING: 0.0625
Info: NONBONDED TABLE SIZE: 705 POINTS
TCL: Running for 1500000 steps
ETITLE: TS BOND ANGLE DIHED IMPRP ELECT VDW BOUNDARY MISC KINETIC TOTAL TEMP POTENTIAL TOTALAVG TEMPAVG PRESSURE GPRESSURE VOLUME PRESSAVG GPRESSAVG
ENERGY: 0 1.5228 18.2256 8.8244 0.0000 -10749.7402 1494.0421 0.0000 0.0000 1776.9563 -7450.1689 303.7381 -9227.1253 -7450.1689 303.7381 436.7066 510.8399 30135.9151 436.7066 510.8399
ENERGY: 300000 5.2487 16.5274 7.2168 0.0000 -10679.4016 1408.1490 0.0000 0.0000 1756.3760 -7485.8836 300.2203 -9242.2596 -7416.2980 302.0957 -61.4065 5.6523 29421.4401 184.2040 258.2336
ENERGY: 600000 2.1657 10.7604 8.4604 0.0000 -10687.8166 1452.5137 0.0000 0.0000 1783.8964 -7430.0200 304.9244 -9213.9164 -7426.4368 301.8710 228.3425 251.5167 29957.3596 126.8530 203.7350
ENERGY: 900000 5.3880 6.0834 6.0420 0.0000 -10611.9105 1348.2832 0.0000 0.0000 1727.3823 -7518.7316 295.2644 -9246.1139 -7447.3239 299.8178 -591.4906 -603.4358 29961.4291 -26.1853 39.1179
ENERGY: 1200000 2.4693 11.2946 7.7851 0.0000 -10485.8413 1339.2395 0.0000 0.0000 1740.0600 -7384.9928 297.4314 -9125.0528 -7450.9654 298.5758 -724.2114 -673.6982 30884.0615 3.2026 60.2345
ENERGY: 1500000 5.5712 7.7799 7.7471 0.0000 -10575.4728 1359.5876 0.0000 0.0000 1763.8625 -7430.9245 301.5000 -9194.7870 -7455.1132 298.2930 -216.8958 -225.5016 30025.0535 -10.9309 44.8097
TCL: Running FEP window  12: Lambda1 0.5499999999999999 Lambda2 0.6    [dLambda 0.050000000000000044]
TCL: Setting parameter firsttimestep to 0
TCL: Setting parameter alchLambda to 0.5499999999999999
Info: NONBONDED TABLE R-SQUARED SPACING: 0.0625
Info: NONBONDED TABLE SIZE: 705 POINTS
TCL: Setting parameter alchLambda2 to 0.6
Info: NONBONDED TABLE R-SQUARED SPACING: 0.0625
Info: NONBONDED TABLE SIZE: 705 POINTS
TCL: Running for 1500000 steps
ETITLE: TS BOND ANGLE DIHED IMPRP ELECT VDW BOUNDARY MISC KINETIC TOTAL TEMP POTENTIAL TOTALAVG TEMPAVG PRESSURE GPRESSURE VOLUME PRESSAVG GPRESSAVG
ENERGY: 0 5.5712 7.7799 7.7471 0.0000 -10575.8877 1359.1808 0.0000 0.0000 1763.0032 -7432.6056 301.3531 -9195.6088 -7432.6056 301.3531 -294.2923 -220.4210 30025.0535 -294.2923 -220.4210
ENERGY: 300000 0.6780 14.4300 7.6054 0.0000 -10764.2170 1506.7165 0.0000 0.0000 1796.9498 -7437.8371 307.1557 -9234.7869 -7443.9733 301.6514 456.1610 472.1233 30279.0584 -102.1210 -34.8168
ENERGY: 600000 1.3095 9.7572 7.4391 0.0000 -10542.2493 1427.7869 0.0000 0.0000 1723.7652 -7372.1914 294.6461 -9095.9566 -7415.4411 300.8925 172.8419 272.1194 30482.6359 -84.2698 -14.3132
ENERGY: 900000 1.4175 10.3336 7.7389 0.0000 -10674.7503 1440.2945 0.0000 0.0000 1776.2314 -7438.7343 303.6142 -9214.9657 -7424.1571 300.5135 138.0983 145.6856 30260.4799 -30.6015 32.3670
ENERGY: 1200000 4.3552 14.4760 7.8775 0.0000 -10590.7782 1374.7685 0.0000 0.0000 1781.2765 -7408.0246 304.4766 -9189.3010 -7422.4545 300.3455 -454.7634 -427.6039 30383.7431 -75.4182 -11.7281
ENERGY: 1500000 2.5531 11.7786 7.0437 0.0000 -10756.2027 1497.4570 0.0000 0.0000 1709.0581 -7528.3123 292.1322 -9237.3704 -7431.2714 299.4554 439.4705 465.9187 29876.2891 34.3879 90.5262
TCL: Running FEP window  13: Lambda1 0.6    Lambda2 0.65   [dLambda 0.050000000000000044]
TCL: Setting parameter firsttimestep to 0
TCL: Setting parameter alchLambda to 0.6
Info: NONBONDED TABLE R-SQUARED SPACING: 0.0625
Info: NONBONDED TABLE SIZE: 705 POINTS
TCL: Setting parameter alchLambda2 to 0.65
Info: NONBONDED TABLE R-SQUARED SPACING: 0.0625
Info: NONBONDED TABLE SIZE: 705 POINTS
TCL: Running for 1500000 steps
ETITLE: TS BOND ANGLE DIHED IMPRP ELECT VDW BOUNDARY MISC KINETIC TOTAL TEMP POTENTIAL TOTALAVG TEMPAVG PRESSURE GPRESSURE VOLUME PRESSAVG GPRESSAVG
ENERGY: 0 2.5531 11.7786 7.0437 0.0000 -10756.6688 1498.1045 0.0000 0.0000 1708.1721 -7529.0168 291.9807 -9237.1889 -7529.0168 291.9807 393.3782 484.9237 29876.2891 393.3782 484.9237
ENERGY: 300000 6.5263 10.2536 6.6950 0.0000 -10638.6423 1459.2181 0.0000 0.0000 1764.2115 -7391.7379 301.5596 -9155.9493 -7442.6169 296.3932 604.1896 728.3031 29867.0154 -38.1439 52.4926
ENERGY: 600000 1.6623 10.2178 9.0110 0.0000 -10700.8727 1405.9425 0.0000 0.0000 1728.2639 -7545.7752 295.4151 -9274.0391 -7444.6947 296.4292 -460.5156 -426.9402 30019.0740 -275.6561 -219.8892
ENERGY: 900000 3.6759 12.7762 7.4456 0.0000 -10571.7439 1403.0971 0.0000 0.0000 1659.1919 -7485.5572 283.6085 -9144.7492 -7444.2544 296.0420 -185.3496 -156.3446 30374.8577 -165.5490 -112.8205
ENERGY: 1200000 1.9414 11.0212 8.4949 0.0000 -10630.2008 1426.4955 0.0000 0.0000 1793.0948 -7389.1531 306.4967 -9182.2479 -7435.0278 297.0280 22.7224 21.8195 30279.6799 -69.9081 -17.8300
ENERGY: 1500000 2.3125 12.9571 7.9958 0.0000 -10697.0833 1497.4077 0.0000 0.0000 1746.1122 -7430.2980 298.4659 -9176.4102 -7429.3430 297.4901 441.2615 480.5716 30515.9598 -61.1039 -6.1939
TCL: Running FEP window  14: Lambda1 0.65   Lambda2 0.7000000000000001 [dLambda 0.050000000000000044]
TCL: Setting parameter firsttimestep to 0
TCL: Setting parameter alchLambda to 0.65
Info: NONBONDED TABLE R-SQUARED SPACING: 0.0625
Info: NONBONDED TABLE SIZE: 705 POINTS
TCL: Setting parameter alchLambda2 to 0.7000000000000001
Info: NONBONDED TABLE R-SQUARED SPACING: 0.0625
Info: NONBONDED TABLE SIZE: 705 POINTS
TCL: Running for 1500000 steps
ETITLE: TS BOND ANGLE DIHED IMPRP ELECT VDW BOUNDARY MISC KINETIC TOTAL TEMP POTENTIAL TOTALAVG TEMPAVG PRESSURE GPRESSURE VOLUME PRESSAVG GPRESSAVG
ENERGY: 0 2.3125 12.9571 7.9958 0.0000 -10697.3512 1497.1121 0.0000 0.0000 1745.2278 -7431.7458 298.3147 -9176.9736 -7431.7458 298.3147 393.2650 482.9869 30515.9598 393.2650 482.9869
ENERGY: 300000 1.1604 12.3284 8.0504 0.0000 -10482.8264 1353.8133 0.0000 0.0000 1751.8720 -7355.6019 299.4504 -9107.4739 -7397.2723 298.1544 -84.6088 -80.8265 29749.4841 99.1886 149.9640
ENERGY: 600000 2.3872 14.5581 8.9728 0.0000 -10698.4766 1471.4130 0.0000 0.0000 1771.6052 -7429.5401 302.8235 -9201.1454 -7401.0746 299.3931 708.2517 763.4710 29724.0318 103.1301 156.7713
ENERGY: 900000 1.3589 15.3479 8.9719 0.0000 -10634.5049 1497.7567 0.0000 0.0000 1766.3058 -7344.7638 301.9176 -9111.0696 -7394.1974 299.9065 412.7684 430.2025 30824.1363 170.0076 225.6866
ENERGY: 1200000 2.0956 11.0624 7.3308 0.0000 -10640.4397 1437.1644 0.0000 0.0000 1821.8140 -7360.9726 311.4057 -9182.7866 -7395.4893 300.8164 108.7741 153.4704 30235.8120 94.9049 154.1568
ENERGY: 1500000 3.9298 22.2263 8.1478 0.0000 -10453.1002 1317.4362 0.0000 0.0000 1751.3221 -7350.0379 299.3564 -9101.3600 -7394.9514 300.1552 -824.3773 -753.8402 30491.6680 -4.8492 50.8064
TCL: Running FEP window  15: Lambda1 0.7000000000000001 Lambda2 0.7500000000000001 [dLambda 0.050000000000000044]
TCL: Setting parameter firsttimestep to 0
TCL: Setting parameter alchLambda to 0.7000000000000001
Info: NONBONDED TABLE R-SQUARED SPACING: 0.0625
Info: NONBONDED TABLE SIZE: 705 POINTS
TCL: Setting parameter alchLambda2 to 0.7500000000000001
Info: NONBONDED TABLE R-SQUARED SPACING: 0.0625
Info: NONBONDED TABLE SIZE: 705 POINTS
TCL: Running for 1500000 steps
ETITLE: TS BOND ANGLE DIHED IMPRP ELECT VDW BOUNDARY MISC KINETIC TOTAL TEMP POTENTIAL TOTALAVG TEMPAVG PRESSURE GPRESSURE VOLUME PRESSAVG GPRESSAVG
ENERGY: 0 3.9298 22.2263 8.1478 0.0000 -10453.6298 1317.0901 0.0000 0.0000 1750.4445 -7351.7912 299.2064 -9102.2357 -7351.7912 299.2064 -824.9445 -744.0470 30491.6680 -824.9445 -744.0470
ENERGY: 300000 5.0640 12.1880 10.7906 0.0000 -10681.2045 1473.5139 0.0000 0.0000 1719.3194 -7460.3286 293.8862 -9179.6480 -7477.8050 300.2442 455.1305 449.8759 30322.9500 57.2423 127.9674
ENERGY: 600000 3.7192 8.4092 7.9909 0.0000 -10818.8303 1522.4191 0.0000 0.0000 1754.1832 -7522.1086 299.8455 -9276.2918 -7465.5600 299.2173 464.0733 540.3689 30066.4900 227.0093 294.3847
ENERGY: 900000 2.6879 11.6238 7.9095 0.0000 -10695.5755 1505.7492 0.0000 0.0000 1774.6314 -7392.9737 303.3407 -9167.6051 -7456.3649 301.0592 626.9799 703.2555 29993.7381 248.9517 314.7970
ENERGY: 1200000 3.9454 11.5644 9.0868 0.0000 -10611.7378 1418.9361 0.0000 0.0000 1756.4098 -7411.7954 300.2261 -9168.2051 -7443.7951 301.6880 8.1067 68.9203 30201.5699 230.4770 294.3485
ENERGY: 1500000 1.2900 8.7956 8.6601 0.0000 -10517.7708 1299.3515 0.0000 0.0000 1706.8560 -7492.8176 291.7558 -9199.6737 -7432.8008 300.7367 -1097.8333 -984.4727 30308.4084 151.1259 219.1215
TCL: Running FEP window  16: Lambda1 0.7500000000000001 Lambda2 0.8000000000000002 [dLambda 0.050000000000000044]
TCL: Setting parameter firsttimestep to 0
TCL: Setting parameter alchLambda to 0.7500000000000001
Info: NONBONDED TABLE R-SQUARED SPACING: 0.0625
Info: NONBONDED TABLE SIZE: 705 POINTS
TCL: Setting parameter alchLambda2 to 0.8000000000000002
Info: NONBONDED TABLE R-SQUARED SPACING: 0.0625
Info: NONBONDED TABLE SIZE: 705 POINTS
TCL: Running for 1500000 steps
ETITLE: TS BOND ANGLE DIHED IMPRP ELECT VDW BOUNDARY MISC KINETIC TOTAL TEMP POTENTIAL TOTALAVG TEMPAVG PRESSURE GPRESSURE VOLUME PRESSAVG GPRESSAVG
ENERGY: 0 1.2900 8.7956 8.6601 0.0000 -10518.4655 1300.2585 0.0000 0.0000 1705.9804 -7493.4809 291.6061 -9199.4614 -7493.4809 291.6061 -1039.4099 -961.0725 30308.4084 -1039.4099 -961.0725
ENERGY: 300000 3.7102 13.8048 8.1725 0.0000 -10604.5284 1350.3323 0.0000 0.0000 1794.7523 -7433.7564 306.7800 -9228.5087 -7457.9454 300.5076 -341.8423 -215.0320 29659.3562 -349.1808 -263.8737
ENERGY: 600000 2.5331 10.9627 7.6421 0.0000 -10566.4412 1418.9013 0.0000 0.0000 1757.6434 -7368.7586 300.4369 -9126.4020 -7455.2968 301.3622 387.0735 452.7457 29822.1503 -110.9175 -47.3820
ENERGY: 900000 2.1386 12.8454 10.6475 0.0000 -10647.3277 1424.4604 0.0000 0.0000 1764.1433 -7433.0924 301.5480 -9197.2357 -7455.0583 301.8446 -77.0673 -48.2823 30238.9737 -238.9439 -173.2936
ENERGY: 1200000 1.9115 11.6021 7.1121 0.0000 -10709.2783 1487.6144 0.0000 0.0000 1761.9986 -7439.0396 301.1814 -9201.0382 -7442.3840 302.4018 667.1649 729.0947 30039.5957 -123.3231 -62.3594
ENERGY: 1500000 2.5913 10.1623 8.4669 0.0000 -10589.1406 1403.1017 0.0000 0.0000 1752.0533 -7412.7651 299.4814 -9164.8184 -7446.0911 302.1705 -250.8923 -160.4999 30443.8346 -83.7761 -16.2469
TCL: Running FEP window  17: Lambda1 0.8000000000000002 Lambda2 0.8500000000000002 [dLambda 0.050000000000000044]
TCL: Setting parameter firsttimestep to 0
TCL: Setting parameter alchLambda to 0.8000000000000002
Info: NONBONDED TABLE R-SQUARED SPACING: 0.0625
Info: NONBONDED TABLE SIZE: 705 POINTS
TCL: Setting parameter alchLambda2 to 0.8500000000000002
Info: NONBONDED TABLE R-SQUARED SPACING: 0.0625
Info: NONBONDED TABLE SIZE: 705 POINTS
TCL: Running for 1500000 steps
ETITLE: TS BOND ANGLE DIHED IMPRP ELECT VDW BOUNDARY MISC KINETIC TOTAL TEMP POTENTIAL TOTALAVG TEMPAVG PRESSURE GPRESSURE VOLUME PRESSAVG GPRESSAVG
ENERGY: 0 2.5913 10.1623 8.4669 0.0000 -10589.8324 1403.0749 0.0000 0.0000 1751.1654 -7414.3716 299.3297 -9165.5370 -7414.3716 299.3297 -225.0219 -149.0916 30443.8346 -225.0219 -149.0916
ENERGY: 300000 1.0281 12.8755 8.4002 0.0000 -10698.4422 1449.5229 0.0000 0.0000 1691.9709 -7534.6445 289.2114 -9226.6155 -7457.1906 298.4006 -80.6050 31.7284 30434.9503 29.0286 91.5280
ENERGY: 600000 2.1796 13.9040 9.1315 0.0000 -10621.1507 1417.0091 0.0000 0.0000 1763.9142 -7415.0123 301.5088 -9178.9265 -7431.1134 301.3386 123.8898 156.2688 29955.1210 48.4480 105.5939
ENERGY: 900000 1.6731 8.8794 7.2593 0.0000 -10645.6980 1431.6114 0.0000 0.0000 1771.5645 -7424.7103 302.8165 -9196.2748 -7442.0802 300.6573 46.2133 135.0133 30216.1420 51.1157 107.7313
ENERGY: 1200000 3.4653 11.4781 8.1751 0.0000 -10559.3800 1324.6836 0.0000 0.0000 1750.0817 -7461.4961 299.1444 -9211.5777 -7437.5209 300.7537 -844.9970 -770.9978 30243.6156 11.3603 69.7055
ENERGY: 1500000 2.7862 11.6245 6.5018 0.0000 -10515.8667 1325.9735 0.0000 0.0000 1733.7840 -7435.1967 296.3586 -9168.9807 -7433.7881 300.2494 -638.0232 -649.1805 30221.7089 -2.2199 52.4730
TCL: Running FEP window  18: Lambda1 0.8500000000000002 Lambda2 0.9000000000000002 [dLambda 0.050000000000000044]
TCL: Setting parameter firsttimestep to 0
TCL: Setting parameter alchLambda to 0.8500000000000002
Info: NONBONDED TABLE R-SQUARED SPACING: 0.0625
Info: NONBONDED TABLE SIZE: 705 POINTS
TCL: Setting parameter alchLambda2 to 0.9000000000000002
Info: NONBONDED TABLE R-SQUARED SPACING: 0.0625
Info: NONBONDED TABLE SIZE: 705 POINTS
TCL: Running for 1500000 steps
ETITLE: TS BOND ANGLE DIHED IMPRP ELECT VDW BOUNDARY MISC KINETIC TOTAL TEMP POTENTIAL TOTALAVG TEMPAVG PRESSURE GPRESSURE VOLUME PRESSAVG GPRESSAVG
ENERGY: 0 2.7862 11.6245 6.5018 0.0000 -10516.8328 1326.2381 0.0000 0.0000 1732.9246 -7436.7576 296.2117 -9169.6821 -7436.7576 296.2117 -714.1138 -633.9652 30221.7089 -714.1138 -633.9652
ENERGY: 300000 2.0892 10.4629 7.4563 0.0000 -10552.7357 1325.1632 0.0000 0.0000 1762.5411 -7445.0230 301.2741 -9207.5641 -7454.2768 297.8325 -965.8164 -988.2413 30611.7576 -253.8785 -198.4091
ENERGY: 600000 2.0228 14.0907 7.5264 0.0000 -10559.4390 1374.1156 0.0000 0.0000 1716.0852 -7445.5983 293.3333 -9161.6835 -7451.0565 297.0708 -517.6357 -460.7203 30667.4106 -227.0506 -171.6710
ENERGY: 900000 3.1248 14.1094 10.0315 0.0000 -10590.5719 1425.6908 0.0000 0.0000 1738.7654 -7398.8500 297.2101 -9137.6154 -7441.5705 297.5327 22.7496 113.5359 30400.5906 -196.4947 -133.6540
ENERGY: 1200000 5.0253 9.4755 6.8075 0.0000 -10632.0302 1426.6480 0.0000 0.0000 1756.1374 -7427.9365 300.1795 -9184.0740 -7435.1414 298.3964 -29.8985 67.3752 29871.0560 -185.5718 -118.0159
ENERGY: 1500000 3.7953 12.6218 10.4883 0.0000 -10610.8613 1358.9574 0.0000 0.0000 1774.8668 -7450.1317 303.3810 -9224.9985 -7437.3584 297.9511 -376.9872 -391.7040 29924.3299 -188.3468 -125.0702
TCL: Running FEP window  19: Lambda1 0.9000000000000002 Lambda2 0.9500000000000003 [dLambda 0.050000000000000044]
TCL: Setting parameter firsttimestep to 0
TCL: Setting parameter alchLambda to 0.9000000000000002
Info: NONBONDED TABLE R-SQUARED SPACING: 0.0625
Info: NONBONDED TABLE SIZE: 705 POINTS
TCL: Setting parameter alchLambda2 to 0.9500000000000003
Info: NONBONDED TABLE R-SQUARED SPACING: 0.0625
Info: NONBONDED TABLE SIZE: 705 POINTS
TCL: Running for 1500000 steps
ETITLE: TS BOND ANGLE DIHED IMPRP ELECT VDW BOUNDARY MISC KINETIC TOTAL TEMP POTENTIAL TOTALAVG TEMPAVG PRESSURE GPRESSURE VOLUME PRESSAVG GPRESSAVG
ENERGY: 0 3.7953 12.6218 10.4883 0.0000 -10611.9486 1359.3934 0.0000 0.0000 1773.9751 -7451.6747 303.2286 -9225.6498 -7451.6747 303.2286 -474.1088 -367.4373 29924.3299 -474.1088 -367.4373
ENERGY: 300000 0.9143 12.0317 12.0215 0.0000 -10680.4465 1388.8418 0.0000 0.0000 1747.0724 -7519.5649 298.6300 -9266.6372 -7444.2947 300.7689 -491.2193 -451.4786 30357.4286 -589.6056 -529.4672
ENERGY: 600000 2.1389 14.1640 7.2633 0.0000 -10679.7519 1467.3822 0.0000 0.0000 1794.3250 -7394.4784 306.7070 -9188.8035 -7432.4472 301.7580 180.2891 254.0315 30439.4822 -259.4368 -188.6813
ENERGY: 900000 0.8316 8.9070 9.2621 0.0000 -10516.2396 1311.4915 0.0000 0.0000 1723.3709 -7462.3764 294.5787 -9185.7474 -7442.4285 299.2075 -821.8305 -752.3980 30375.0609 -227.7821 -164.5559
ENERGY: 1200000 2.5803 13.3664 8.3518 0.0000 -10569.6572 1362.9207 0.0000 0.0000 1736.0267 -7446.4114 296.7420 -9182.4381 -7444.2660 299.7181 -407.2318 -364.6374 30141.8806 -251.3791 -191.0356
ENERGY: 1500000 1.6249 15.0910 8.8212 0.0000 -10532.7268 1374.0764 0.0000 0.0000 1730.4813 -7402.6319 295.7941 -9133.1133 -7431.3240 299.0554 -515.9031 -404.5922 30808.4025 -296.1718 -230.0060
TCL: Running FEP window  20: Lambda1 0.9500000000000003 Lambda2 1.0    [dLambda 0.04999999999999971]
TCL: Setting parameter firsttimestep to 0
TCL: Setting parameter alchLambda to 0.9500000000000003
Info: NONBONDED TABLE R-SQUARED SPACING: 0.0625
Info: NONBONDED TABLE SIZE: 705 POINTS
TCL: Setting parameter alchLambda2 to 1.0
Info: NONBONDED TABLE R-SQUARED SPACING: 0.0625
Info: NONBONDED TABLE SIZE: 705 POINTS
TCL: Running for 1500000 steps
ETITLE: TS BOND ANGLE DIHED IMPRP ELECT VDW BOUNDARY MISC KINETIC TOTAL TEMP POTENTIAL TOTALAVG TEMPAVG PRESSURE GPRESSURE VOLUME PRESSAVG GPRESSAVG
ENERGY: 0 1.6249 15.0910 8.8212 0.0000 -10533.7144 1373.9735 0.0000 0.0000 1729.6325 -7404.5714 295.6490 -9134.2039 -7404.5714 295.6490 -466.1773 -389.7914 30808.4025 -466.1773 -389.7914
ENERGY: 300000 5.4967 9.6781 6.9348 0.0000 -10751.0527 1450.7721 0.0000 0.0000 1790.1154 -7488.0556 305.9874 -9278.1710 -7429.0962 299.8878 311.5005 423.2779 29658.5982 -91.2078 -11.4220
ENERGY: 600000 4.2236 12.1327 6.2140 0.0000 -10499.3965 1322.2247 0.0000 0.0000 1785.7237 -7368.8778 305.2368 -9154.6015 -7428.2108 300.5239 -847.6509 -800.4058 30580.0873 -244.4630 -181.8246
ENERGY: 900000 2.4119 10.9769 8.5640 0.0000 -10676.6053 1420.8693 0.0000 0.0000 1776.3941 -7457.3891 303.6420 -9233.7832 -7426.4427 301.5847 -260.0927 -218.8737 30465.4242 -236.2402 -170.7362
ENERGY: 1200000 1.1792 13.5677 8.4348 0.0000 -10548.4448 1371.1127 0.0000 0.0000 1777.7740 -7376.3765 303.8779 -9154.1505 -7426.8480 301.0069 -526.4521 -459.8289 30824.5284 -252.9575 -187.9402
ENERGY: 1500000 1.7907 10.6901 9.5510 0.0000 -10604.5908 1387.1247 0.0000 0.0000 1798.2893 -7397.1449 307.3846 -9195.4342 -7425.8388 301.4013 -448.1888 -360.3549 30554.2821 -313.1415 -246.5445
TCL: Exiting due to exit command.
