Info: SIMULATION PARAMETERS:
Info: TIMESTEP               2
Info: NUMBER OF STEPS        0
Info: STEPS PER CYCLE        10
Info: PERIODIC CELL BASIS 1  31.5799 0 0
Info: PERIODIC CELL BASIS 2  0 30.5293 0
Info: PERIODIC CELL BASIS 3  0 0 31.4329
Info: PERIODIC CELL CENTER   0 0 0
Info: WRAPPING WATERS AROUND PERIODIC BOUNDARIES ON OUTPUT.
Info: WRAPPING ALL CLUSTERS AROUND PERIODIC BOUNDARIES ON OUTPUT.
Info: FIRST LDB TIMESTEP     50
Info: LAST LDB TIMESTEP     -1
Info: HOM BACKGROUND SCALING 1
Info: PME BACKGROUND SCALING 1
Info: MIN ATOMS PER PATCH    40
Info: EMPTY PATCH LOAD       40 ATOMS
Info: VELOCITY FILE          mobley_5747981_equil.vel
Info: CENTER OF MASS MOVING INITIALLY? NO
Info: DIELECTRIC             1
Info: EXCLUDE                SCALED ONE-FOUR
Info: 1-4 ELECTROSTATICS SCALED BY 0.833333
Info: MODIFIED 1-4 VDW PARAMETERS WILL BE USED
Info: DCD FILENAME           mobley_5747981_prod.dcd
Info: DCD FREQUENCY          100000
Info: DCD FIRST STEP         100000
Info: DCD FILE WILL CONTAIN UNIT CELL DATA
Info: XST FILENAME           mobley_5747981_prod.xst
Info: XST FREQUENCY          100000
Info: NO VELOCITY DCD OUTPUT
Info: NO FORCE DCD OUTPUT
Info: OUTPUT FILENAME        mobley_5747981_prod
Info: BINARY OUTPUT FILES WILL BE USED
Info: RESTART FILENAME       mobley_5747981_prod.restart
Info: RESTART FREQUENCY      100000
Info: BINARY RESTART FILES WILL BE USED
Info: CUTOFF                 9
Info: PAIRLIST DISTANCE      11
Info: PAIRLIST SHRINK RATE   0.01
Info: PAIRLIST GROW RATE     0.01
Info: PAIRLIST TRIGGER       0.3
Info: PAIRLISTS PER CYCLE    2
Info: PAIRLISTS ENABLED
Info: MARGIN                 2
Info: HYDROGEN GROUP CUTOFF  2.5
Info: PATCH DIMENSION        15.5
Info: ENERGY OUTPUT STEPS    100000
Info: ENERGY EVALUATION STEPS    100000
Info: OUTPUT ENERGY PRECISION 4
Info: CROSSTERM ENERGY INCLUDED IN DIHEDRAL
Info: TIMING OUTPUT STEPS    1000000
Info: PRESSURE OUTPUT STEPS  100000
Info: ALCHEMICAL FEP ON
Info: FEP CURRENT LAMBDA VALUE     1
Info: FEP COMPARISON LAMBDA VALUE  0.95
Info: FEP INTRA-ALCHEMICAL NON-BONDED INTERACTIONS WILL BE RETAINED
Info: FEP INTRA-ALCHEMICAL BONDED INTERACTIONS WILL BE RETAINED
Info: FEP VDW SHIFTING COEFFICIENT 5
Info: FEP ELEC. ACTIVE FOR ANNIHILATED PARTICLES BETWEEN LAMBDA = 0 AND LAMBDA = 0.5
Info: FEP ELEC. ACTIVE FOR EXNIHILATED PARTICLES BETWEEN LAMBDA = 0.5 AND LAMBDA = 1
Info: FEP VDW ACTIVE FOR ANNIHILATED PARTICLES BETWEEN LAMBDA = 0 AND LAMBDA = 1
Info: FEP VDW ACTIVE FOR EXNIHILATED PARTICLES BETWEEN LAMBDA = 0 AND LAMBDA = 1
Info: FEP BOND ACTIVE FOR ANNIHILATED PARTICLES BETWEEN LAMBDA = 1 AND LAMBDA = 1
Info: FEP BOND ACTIVE FOR EXNIHILATED PARTICLES BETWEEN LAMBDA = 0 AND LAMBDA = 0
Info: LANGEVIN DYNAMICS ACTIVE
Info: LANGEVIN TEMPERATURE   300
Info: LANGEVIN USING BBK INTEGRATOR
Info: LANGEVIN DAMPING COEFFICIENT IS 1 INVERSE PS
Info: LANGEVIN DYNAMICS APPLIED TO HYDROGENS
Info: LANGEVIN PISTON PRESSURE CONTROL ACTIVE
Info:        TARGET PRESSURE IS 1.01325 BAR
Info:     OSCILLATION PERIOD IS 50 FS
Info:             DECAY TIME IS 25 FS
Info:     PISTON TEMPERATURE IS 300 K
Info:       PRESSURE CONTROL IS GROUP-BASED
Info:    INITIAL STRAIN RATE IS 6.95484e-05 6.95484e-05 6.95484e-05
Info:       CELL FLUCTUATION IS ISOTROPIC
Info: PARTICLE MESH EWALD (PME) ACTIVE
Info: PME TOLERANCE               1e-06
Info: PME EWALD COEFFICIENT       0.348832
Info: PME INTERPOLATION ORDER     4
Info: PME GRID DIMENSIONS         32 32 32
Info: PME MAXIMUM GRID SPACING    1
Info: PME CALCULATION WILL BE PERFORMED ON GPU
Info: FULL ELECTROSTATIC EVALUATION FREQUENCY      2
Info: USING VERLET I (r-RESPA) MTS SCHEME.
Info: C1 SPLITTING OF LONG RANGE ELECTROSTATICS
Info: PLACING ATOMS IN PATCHES BY HYDROGEN GROUPS
Info: RIGID BONDS TO HYDROGEN : ALL
Info:         ERROR TOLERANCE : 1e-08
Info:          MAX ITERATIONS : 100
Info: RIGID WATER USING SETTLE ALGORITHM
Info: RANDOM NUMBER SEED     1744021862
Info: USE HYDROGEN BONDS?    NO
Info: Using AMBER format force field!
Info: AMBER PARM FILE        mobley_5747981.prmtop
Info: COORDINATE PDB         mobley_5747981.pdb
Info: Exclusions will be read from PARM file!
Info: SCNB (VDW SCALING)     2
Info: USING ARITHMETIC MEAN TO COMBINE L-J SIGMA PARAMETERS
Info: BINARY COORDINATES     mobley_5747981_equil.coor
Info: SUMMARY OF PARAMETERS:
Info: 5 BONDS
Info: 6 ANGLES
Info:   6 HARMONIC
Info:   0 COSINE-BASED
Info: 10 DIHEDRAL
Info: 0 IMPROPER
Info: 0 CROSSTERM
Info: 0 VDW
Info: 15 VDW_PAIRS
Info: 0 NBTHOLE_PAIRS
Info: To read alchdata from file: mobley_5747981.pdb
Info: To read alchflag data from column: 5
Info: STRUCTURE SUMMARY:
Info: 2937 ATOMS
Info: 2936 BONDS
Info: 40 ANGLES
Info: 58 DIHEDRALS
Info: 0 IMPROPERS
Info: 0 CROSSTERMS
Info: 3009 EXCLUSIONS
Info: 2927 RIGID BONDS
Info: ALCH: 0 ATOMS TO DISAPPEAR IN FINAL STATE
Info: ALCH: 24 ATOMS TO APPEAR IN FINAL STATE
Info: 5884 DEGREES OF FREEDOM
Info: 981 HYDROGEN GROUPS
Info: 4 ATOMS IN LARGEST HYDROGEN GROUP
Info: 981 MIGRATION GROUPS
Info: 4 ATOMS IN LARGEST MIGRATION GROUP
Info: TOTAL MASS = 17643.7 amu
Info: TOTAL CHARGE = -0.000100121 e
Info: MASS DENSITY = 0.9668 g/cm^3
Info: ATOM DENSITY = 0.0969151 atoms/A^3
Info: ADDED 0 IMPLICIT EXCLUSIONS
Info: NONBONDED TABLE R-SQUARED SPACING: 0.0625
Info: NONBONDED TABLE SIZE: 705 POINTS
Info: REMOVING COM VELOCITY 0.137896 0.0392133 -0.030774
Info: Use 3D box decompostion in PME FFT.
Info: Updated CUDA force table with 4096 elements.
Info: Updated CUDA LJ table with 5 x 5 elements.
Info: Found 27 unique exclusion lists needing 84 bytes
TCL: Running for 1500000 steps
ETITLE: TS BOND ANGLE DIHED IMPRP ELECT VDW BOUNDARY MISC KINETIC TOTAL TEMP POTENTIAL TOTALAVG TEMPAVG PRESSURE GPRESSURE VOLUME PRESSAVG GPRESSAVG
ENERGY: 0 5.3581 13.4780 21.1578 0.0000 -10738.3267 1444.1189 0.0000 0.0000 1772.1701 -7482.0439 303.1260 -9254.2139 -7482.0439 303.1260 -357.3981 -280.2609 30304.8657 -357.3981 -280.2609
ENERGY: 300000 3.1079 9.7398 21.0246 0.0000 -10782.3127 1516.0300 0.0000 0.0000 1759.5568 -7472.8536 300.9685 -9232.4105 -7437.5637 301.6501 545.0000 644.0370 29975.2256 98.7639 188.7833
ENERGY: 600000 2.1069 11.8521 22.9252 0.0000 -10868.1332 1591.4034 0.0000 0.0000 1778.1783 -7461.6673 304.1536 -9239.8456 -7421.2264 304.0482 1234.5405 1243.7422 30076.3625 168.2460 239.2701
ENERGY: 900000 4.1631 16.1887 18.6928 0.0000 -10651.3593 1447.5757 0.0000 0.0000 1792.8258 -7371.9134 306.6591 -9164.7391 -7408.8937 303.5018 102.6321 162.6469 30250.1706 188.7332 254.9159
ENERGY: 1200000 3.3219 10.8517 19.1514 0.0000 -10641.8526 1446.9111 0.0000 0.0000 1811.0458 -7350.5707 309.7756 -9161.6165 -7406.3440 303.2371 197.6676 266.6661 30213.7642 171.6210 225.1033
ENERGY: 1500000 5.5372 12.6371 19.0107 0.0000 -10677.6444 1521.5813 0.0000 0.0000 1777.2978 -7341.5803 304.0030 -9118.8781 -7394.1179 303.3938 802.1661 870.1967 30159.5456 174.8029 233.7247
TCL: Running FEP window   2: Lambda1 0.95   Lambda2 0.8999999999999999 [dLambda -0.050000000000000044]
TCL: Setting parameter firsttimestep to 0
TCL: Setting parameter alchLambda to 0.95
Info: NONBONDED TABLE R-SQUARED SPACING: 0.0625
Info: NONBONDED TABLE SIZE: 705 POINTS
TCL: Setting parameter alchLambda2 to 0.8999999999999999
Info: NONBONDED TABLE R-SQUARED SPACING: 0.0625
Info: NONBONDED TABLE SIZE: 705 POINTS
TCL: Running for 1500000 steps
ETITLE: TS BOND ANGLE DIHED IMPRP ELECT VDW BOUNDARY MISC KINETIC TOTAL TEMP POTENTIAL TOTALAVG TEMPAVG PRESSURE GPRESSURE VOLUME PRESSAVG GPRESSAVG
ENERGY: 0 5.5372 12.6371 19.0107 0.0000 -10675.7390 1521.2792 0.0000 0.0000 1776.3921 -7340.8827 303.8481 -9117.2748 -7340.8827 303.8481 766.6156 857.2344 30159.5456 766.6156 857.2344
ENERGY: 300000 1.8271 13.0521 20.9713 0.0000 -10613.4822 1409.6584 0.0000 0.0000 1742.4541 -7425.5192 298.0431 -9167.9733 -7384.7689 303.2427 -63.2050 10.8732 30196.3983 386.6808 480.6926
ENERGY: 600000 7.4269 18.6580 20.4459 0.0000 -10627.4933 1448.4348 0.0000 0.0000 1743.3476 -7389.1802 298.1959 -9132.5277 -7382.4844 303.9122 -22.9232 76.2526 30274.5972 152.7471 232.8691
ENERGY: 900000 3.2977 13.4913 18.7807 0.0000 -10397.9307 1269.5290 0.0000 0.0000 1789.5004 -7303.3315 306.0903 -9092.8319 -7371.0784 304.3046 -1245.0619 -1188.7774 30806.5765 -132.6023 -51.1111
ENERGY: 1200000 3.1376 8.8006 19.2630 0.0000 -10730.4611 1462.2725 0.0000 0.0000 1759.7018 -7477.2855 300.9933 -9236.9873 -7378.9327 303.7179 -105.5250 68.4315 30181.5658 -206.3362 -124.5932
ENERGY: 1500000 2.3612 17.9452 20.8130 0.0000 -10672.7841 1454.6373 0.0000 0.0000 1724.6664 -7452.3611 295.0005 -9177.0275 -7379.8863 302.9115 116.3656 152.6265 30169.1501 -91.2567 -17.7543
TCL: Running FEP window   3: Lambda1 0.8999999999999999 Lambda2 0.8499999999999999 [dLambda -0.050000000000000044]
TCL: Setting parameter firsttimestep to 0
TCL: Setting parameter alchLambda to 0.8999999999999999
Info: NONBONDED TABLE R-SQUARED SPACING: 0.0625
Info: NONBONDED TABLE SIZE: 705 POINTS
TCL: Setting parameter alchLambda2 to 0.8499999999999999
Info: NONBONDED TABLE R-SQUARED SPACING: 0.0625
Info: NONBONDED TABLE SIZE: 705 POINTS
TCL: Running for 1500000 steps
ETITLE: TS BOND ANGLE DIHED IMPRP ELECT VDW BOUNDARY MISC KINETIC TOTAL TEMP POTENTIAL TOTALAVG TEMPAVG PRESSURE GPRESSURE VOLUME PRESSAVG GPRESSAVG
ENERGY: 0 2.3612 17.9452 20.8130 0.0000 -10671.4085 1454.7369 0.0000 0.0000 1723.8186 -7451.7336 294.8555 -9175.5522 -7451.7336 294.8555 66.7014 143.7422 30169.1501 66.7014 143.7422
ENERGY: 300000 4.9446 18.5790 19.7256 0.0000 -10801.0338 1453.1261 0.0000 0.0000 1793.8834 -7510.7752 306.8400 -9304.6586 -7405.5093 300.7193 -126.1341 -85.7980 29977.8754 -358.1300 -298.0763
ENERGY: 600000 3.7054 10.4174 20.1507 0.0000 -10735.3896 1498.4650 0.0000 0.0000 1790.0931 -7412.5580 306.1916 -9202.6511 -7410.9062 301.5365 504.3631 628.1939 29919.5256 -127.3632 -64.6255
ENERGY: 900000 4.3985 8.1908 20.1472 0.0000 -10625.4922 1410.3215 0.0000 0.0000 1714.7358 -7467.6984 293.3019 -9182.4342 -7420.3166 299.5605 -431.4378 -436.1643 30444.9585 -259.4364 -214.8381
ENERGY: 1200000 1.6425 12.0160 19.3484 0.0000 -10534.1309 1389.1344 0.0000 0.0000 1790.6096 -7321.3800 306.2800 -9111.9896 -7400.2843 300.2784 27.9859 58.4591 30207.7643 -260.9413 -215.1471
ENERGY: 1500000 2.1421 13.1739 21.2053 0.0000 -10653.9133 1396.6221 0.0000 0.0000 1807.8988 -7412.8711 309.2373 -9220.7699 -7395.9486 301.2885 12.6165 64.1132 29717.2392 -252.5509 -201.2214
TCL: Running FEP window   4: Lambda1 0.8499999999999999 Lambda2 0.7999999999999998 [dLambda -0.050000000000000044]
TCL: Setting parameter firsttimestep to 0
TCL: Setting parameter alchLambda to 0.8499999999999999
Info: NONBONDED TABLE R-SQUARED SPACING: 0.0625
Info: NONBONDED TABLE SIZE: 705 POINTS
TCL: Setting parameter alchLambda2 to 0.7999999999999998
Info: NONBONDED TABLE R-SQUARED SPACING: 0.0625
Info: NONBONDED TABLE SIZE: 705 POINTS
TCL: Running for 1500000 steps
ETITLE: TS BOND ANGLE DIHED IMPRP ELECT VDW BOUNDARY MISC KINETIC TOTAL TEMP POTENTIAL TOTALAVG TEMPAVG PRESSURE GPRESSURE VOLUME PRESSAVG GPRESSAVG
ENERGY: 0 2.1421 13.1739 21.2053 0.0000 -10652.7462 1396.9684 0.0000 0.0000 1806.9712 -7412.2853 309.0786 -9219.2566 -7412.2853 309.0786 -31.7722 52.0716 29717.2392 -31.7722 52.0716
ENERGY: 300000 2.2529 9.9975 19.7249 0.0000 -10630.1507 1449.8982 0.0000 0.0000 1720.6012 -7427.6760 294.3052 -9148.2772 -7383.4456 301.4501 -45.3006 -5.0544 30649.0837 296.8621 334.1946
ENERGY: 600000 6.1912 13.2442 19.1679 0.0000 -10651.2945 1474.6331 0.0000 0.0000 1692.4227 -7445.6354 289.4853 -9138.0581 -7407.3942 299.1560 405.6121 507.0231 29982.0458 19.5190 82.5784
ENERGY: 900000 1.7783 9.5198 19.3401 0.0000 -10637.8112 1398.1895 0.0000 0.0000 1696.7580 -7512.2255 290.2269 -9208.9835 -7420.8827 299.0220 -193.0380 -147.4121 29929.6200 -98.3574 -32.2535
ENERGY: 1200000 1.2684 8.9114 19.3243 0.0000 -10542.3243 1394.3644 0.0000 0.0000 1704.6376 -7413.8183 291.5747 -9118.4559 -7422.1232 298.8949 58.8329 152.2970 29954.0435 -129.0332 -57.1956
ENERGY: 1500000 2.9423 13.8612 19.9878 0.0000 -10682.1514 1486.2977 0.0000 0.0000 1720.1700 -7438.8924 294.2315 -9159.0624 -7420.0145 299.3263 303.6135 374.2439 30394.2352 -60.7007 7.4071
TCL: Running FEP window   5: Lambda1 0.7999999999999998 Lambda2 0.7499999999999998 [dLambda -0.050000000000000044]
TCL: Setting parameter firsttimestep to 0
TCL: Setting parameter alchLambda to 0.7999999999999998
Info: NONBONDED TABLE R-SQUARED SPACING: 0.0625
Info: NONBONDED TABLE SIZE: 705 POINTS
TCL: Setting parameter alchLambda2 to 0.7499999999999998
Info: NONBONDED TABLE R-SQUARED SPACING: 0.0625
Info: NONBONDED TABLE SIZE: 705 POINTS
TCL: Running for 1500000 steps
ETITLE: TS BOND ANGLE DIHED IMPRP ELECT VDW BOUNDARY MISC KINETIC TOTAL TEMP POTENTIAL TOTALAVG TEMPAVG PRESSURE GPRESSURE VOLUME PRESSAVG GPRESSAVG
ENERGY: 0 2.9423 13.8612 19.9878 0.0000 -10680.6021 1485.8363 0.0000 0.0000 1719.2737 -7438.7009 294.0781 -9157.9745 -7438.7009 294.0781 277.0228 360.3903 30394.2352 277.0228 360.3903
ENERGY: 300000 3.1495 14.0355 18.5869 0.0000 -10743.3422 1464.7579 0.0000 0.0000 1732.9824 -7509.8300 296.4230 -9242.8123 -7435.8812 298.2136 -46.9446 23.7074 30234.6123 -79.8643 -15.2568
ENERGY: 600000 3.0701 15.0671 20.0057 0.0000 -10411.0211 1301.8161 0.0000 0.0000 1733.3095 -7337.7525 296.4789 -9071.0621 -7410.0821 299.4902 -1051.2350 -1011.3155 30882.5898 -299.4927 -236.1928
ENERGY: 900000 3.6167 12.2423 22.3128 0.0000 -10654.7334 1494.0408 0.0000 0.0000 1743.8798 -7378.6410 298.2870 -9122.5208 -7410.6104 298.8503 695.1281 755.3428 30205.5280 -87.3792 -36.1412
ENERGY: 1200000 3.9813 17.4073 22.5151 0.0000 -10569.8130 1416.9584 0.0000 0.0000 1732.4356 -7376.5154 296.3295 -9108.9510 -7411.5933 298.6201 -84.8024 38.4719 30140.0482 -65.0858 -7.0927
ENERGY: 1500000 2.8206 14.4062 19.0921 0.0000 -10622.1100 1442.4321 0.0000 0.0000 1780.7067 -7362.6522 304.5861 -9143.3589 -7403.0993 299.7105 245.1165 349.7928 29929.5185 21.7786 88.4831
TCL: Running FEP window   6: Lambda1 0.7499999999999998 Lambda2 0.6999999999999997 [dLambda -0.050000000000000044]
TCL: Setting parameter firsttimestep to 0
TCL: Setting parameter alchLambda to 0.7499999999999998
Info: NONBONDED TABLE R-SQUARED SPACING: 0.0625
Info: NONBONDED TABLE SIZE: 705 POINTS
TCL: Setting parameter alchLambda2 to 0.6999999999999997
Info: NONBONDED TABLE R-SQUARED SPACING: 0.0625
Info: NONBONDED TABLE SIZE: 705 POINTS
TCL: Running for 1500000 steps
ETITLE: TS BOND ANGLE DIHED IMPRP ELECT VDW BOUNDARY MISC KINETIC TOTAL TEMP POTENTIAL TOTALAVG TEMPAVG PRESSURE GPRESSURE VOLUME PRESSAVG GPRESSAVG
ENERGY: 0 2.8206 14.4062 19.0921 0.0000 -10620.7200 1441.5511 0.0000 0.0000 1779.8539 -7362.9960 304.4403 -9142.8500 -7362.9960 304.4403 243.3091 330.9284 29929.5185 243.3091 330.9284
ENERGY: 300000 4.1332 11.7491 19.8129 0.0000 -10556.8366 1410.3100 0.0000 0.0000 1800.8374 -7309.9940 308.0294 -9110.8314 -7358.1196 302.7205 -123.5127 -49.3713 30585.0826 54.4228 128.2554
ENERGY: 600000 1.5567 13.1789 19.7194 0.0000 -10766.2768 1486.9911 0.0000 0.0000 1781.5872 -7463.2435 304.7367 -9244.8307 -7379.1881 300.5202 456.2074 519.8704 29909.3469 -18.0694 45.2152
ENERGY: 900000 1.6064 21.8191 19.5123 0.0000 -10667.9398 1436.1757 0.0000 0.0000 1782.7347 -7406.0917 304.9330 -9188.8264 -7367.7115 302.6149 -216.3905 -212.2893 30537.2342 65.9223 125.9400
ENERGY: 1200000 7.3399 9.8632 20.8588 0.0000 -10719.7507 1505.5856 0.0000 0.0000 1724.3494 -7451.7537 294.9463 -9176.1032 -7383.4460 302.1586 443.3557 561.2558 30062.4081 117.9384 187.6573
ENERGY: 1500000 2.3626 9.7990 19.0425 0.0000 -10457.8938 1383.3499 0.0000 0.0000 1810.7134 -7232.6264 309.7187 -9043.3398 -7375.3495 302.9908 -135.8354 -142.7325 30632.1893 49.1828 113.1319
TCL: Running FEP window   7: Lambda1 0.6999999999999997 Lambda2 0.6499999999999997 [dLambda -0.050000000000000044]
TCL: Setting parameter firsttimestep to 0
TCL: Setting parameter alchLambda to 0.6999999999999997
Info: NONBONDED TABLE R-SQUARED SPACING: 0.0625
Info: NONBONDED TABLE SIZE: 705 POINTS
TCL: Setting parameter alchLambda2 to 0.6499999999999997
Info: NONBONDED TABLE R-SQUARED SPACING: 0.0625
Info: NONBONDED TABLE SIZE: 705 POINTS
TCL: Running for 1500000 steps
ETITLE: TS BOND ANGLE DIHED IMPRP ELECT VDW BOUNDARY MISC KINETIC TOTAL TEMP POTENTIAL TOTALAVG TEMPAVG PRESSURE GPRESSURE VOLUME PRESSAVG GPRESSAVG
ENERGY: 0 2.3626 9.7990 19.0425 0.0000 -10456.0715 1383.3704 0.0000 0.0000 1809.8144 -7231.6826 309.5649 -9041.4970 -7231.6826 309.5649 -226.9743 -149.1195 30632.1893 -226.9743 -149.1195
ENERGY: 300000 1.6711 9.9281 20.2317 0.0000 -10506.0858 1325.4011 0.0000 0.0000 1784.1859 -7364.6679 305.1812 -9148.8538 -7314.0694 304.0295 -759.6154 -697.2221 30339.2298 -554.4088 -488.1729
ENERGY: 600000 3.1781 9.9515 18.7498 0.0000 -10480.5893 1380.8396 0.0000 0.0000 1694.8006 -7373.0697 289.8921 -9067.8703 -7341.2172 303.6101 32.2892 71.9290 30187.9540 4.7160 46.3377
ENERGY: 900000 3.3007 10.6828 21.0590 0.0000 -10598.1551 1450.4894 0.0000 0.0000 1717.1050 -7395.5182 293.7072 -9112.6232 -7364.8483 301.7493 181.7127 221.4928 30244.9070 -78.3006 -25.2994
ENERGY: 1200000 2.3393 7.2550 20.3017 0.0000 -10608.5611 1460.4202 0.0000 0.0000 1796.9704 -7321.2745 307.3680 -9118.2450 -7361.3318 301.9660 240.9394 262.6471 30448.6334 29.2972 86.7651
ENERGY: 1500000 1.1646 11.8212 19.6280 0.0000 -10594.2853 1436.8422 0.0000 0.0000 1729.2170 -7395.6124 295.7789 -9124.8293 -7369.4211 301.0892 299.1789 367.5904 29949.0770 -24.6555 26.7218
TCL: Running FEP window   8: Lambda1 0.6499999999999997 Lambda2 0.5999999999999996 [dLambda -0.050000000000000044]
TCL: Setting parameter firsttimestep to 0
TCL: Setting parameter alchLambda to 0.6499999999999997
Info: NONBONDED TABLE R-SQUARED SPACING: 0.0625
Info: NONBONDED TABLE SIZE: 705 POINTS
TCL: Setting parameter alchLambda2 to 0.5999999999999996
Info: NONBONDED TABLE R-SQUARED SPACING: 0.0625
Info: NONBONDED TABLE SIZE: 705 POINTS
TCL: Running for 1500000 steps
ETITLE: TS BOND ANGLE DIHED IMPRP ELECT VDW BOUNDARY MISC KINETIC TOTAL TEMP POTENTIAL TOTALAVG TEMPAVG PRESSURE GPRESSURE VOLUME PRESSAVG GPRESSAVG
ENERGY: 0 1.1646 11.8212 19.6280 0.0000 -10593.7074 1436.9196 0.0000 0.0000 1728.3287 -7395.8454 295.6270 -9124.1741 -7395.8454 295.6270 275.7239 358.0698 29949.0770 275.7239 358.0698
ENERGY: 300000 3.7541 9.8997 20.5473 0.0000 -10540.3041 1337.2253 0.0000 0.0000 1795.4005 -7373.4772 307.0995 -9168.8777 -7374.0741 302.4728 -925.2678 -788.0747 30384.1858 -250.7828 -180.0624
ENERGY: 600000 3.6717 9.6711 18.7921 0.0000 -10534.1732 1402.1705 0.0000 0.0000 1770.4648 -7329.4029 302.8343 -9099.8678 -7384.2094 299.7516 -85.7393 -103.3729 30115.8729 -178.0826 -109.7536
ENERGY: 900000 2.8076 12.6084 19.3480 0.0000 -10667.2111 1449.9885 0.0000 0.0000 1783.2671 -7399.1915 305.0241 -9182.4586 -7383.2488 299.8659 415.6150 469.4985 29629.6961 40.1887 100.5117
ENERGY: 1200000 1.6453 16.3007 19.9490 0.0000 -10651.1368 1452.1257 0.0000 0.0000 1792.0504 -7369.0656 306.5264 -9161.1160 -7387.9979 299.3978 -19.9508 71.9280 30694.8485 -8.1327 52.2840
ENERGY: 1500000 1.4998 12.7378 19.5105 0.0000 -10692.1169 1442.0182 0.0000 0.0000 1797.7617 -7418.5890 307.5033 -9216.3507 -7394.9716 299.9115 -217.3883 -65.6445 30388.0488 41.5701 107.6532
TCL: Running FEP window   9: Lambda1 0.5999999999999996 Lambda2 0.5499999999999996 [dLambda -0.050000000000000044]
TCL: Setting parameter firsttimestep to 0
TCL: Setting parameter alchLambda to 0.5999999999999996
Info: NONBONDED TABLE R-SQUARED SPACING: 0.0625
Info: NONBONDED TABLE SIZE: 705 POINTS
TCL: Setting parameter alchLambda2 to 0.5499999999999996
Info: NONBONDED TABLE R-SQUARED SPACING: 0.0625
Info: NONBONDED TABLE SIZE: 705 POINTS
TCL: Running for 1500000 steps
ETITLE: TS BOND ANGLE DIHED IMPRP ELECT VDW BOUNDARY MISC KINETIC TOTAL TEMP POTENTIAL TOTALAVG TEMPAVG PRESSURE GPRESSURE VOLUME PRESSAVG GPRESSAVG
ENERGY: 0 1.4998 12.7378 19.5105 0.0000 -10691.6634 1442.3355 0.0000 0.0000 1796.8602 -7418.7196 307.3491 -9215.5798 -7418.7196 307.3491 -150.6912 -72.8953 30388.0488 -150.6912 -72.8953
ENERGY: 300000 2.3207 14.2479 21.5514 0.0000 -10562.3008 1442.1025 0.0000 0.0000 1750.6551 -7331.4232 299.4459 -9082.0782 -7364.7502 305.3999 181.9928 245.9578 30347.4460 134.1288 202.7449
ENERGY: 600000 2.4913 12.2984 19.0693 0.0000 -10589.1613 1422.5122 0.0000 0.0000 1745.1573 -7387.6328 298.5055 -9132.7901 -7378.7987 301.6703 -30.7463 89.1428 30194.2367 -71.6178 2.0811
ENERGY: 900000 4.0560 10.9693 19.7659 0.0000 -10707.9549 1479.4495 0.0000 0.0000 1752.0163 -7441.6980 299.6787 -9193.7143 -7389.4554 301.2932 167.6015 159.2532 30352.7013 -94.4048 -42.5814
ENERGY: 1200000 2.9482 11.1596 19.7014 0.0000 -10684.4763 1436.5998 0.0000 0.0000 1746.1913 -7467.8760 298.6823 -9214.0673 -7395.5677 301.1452 -220.6092 -145.9641 30240.2690 -173.2381 -119.4943
ENERGY: 1500000 3.9404 10.6999 20.6607 0.0000 -10574.1747 1361.0183 0.0000 0.0000 1774.0984 -7403.7569 303.4558 -9177.8554 -7397.1481 301.4501 -664.7903 -651.7601 30446.0713 -224.9330 -171.8748
TCL: Running FEP window  10: Lambda1 0.5499999999999996 Lambda2 0.4999999999999996 [dLambda -0.04999999999999999]
TCL: Setting parameter firsttimestep to 0
TCL: Setting parameter alchLambda to 0.5499999999999996
Info: NONBONDED TABLE R-SQUARED SPACING: 0.0625
Info: NONBONDED TABLE SIZE: 705 POINTS
TCL: Setting parameter alchLambda2 to 0.4999999999999996
Info: NONBONDED TABLE R-SQUARED SPACING: 0.0625
Info: NONBONDED TABLE SIZE: 705 POINTS
TCL: Running for 1500000 steps
ETITLE: TS BOND ANGLE DIHED IMPRP ELECT VDW BOUNDARY MISC KINETIC TOTAL TEMP POTENTIAL TOTALAVG TEMPAVG PRESSURE GPRESSURE VOLUME PRESSAVG GPRESSAVG
ENERGY: 0 3.9404 10.6999 20.6607 0.0000 -10573.0943 1361.2446 0.0000 0.0000 1773.2669 -7403.2818 303.3136 -9176.5486 -7403.2818 303.3136 -748.6741 -657.0410 30446.0713 -748.6741 -657.0410
ENERGY: 300000 2.5283 15.1537 18.9928 0.0000 -10599.5248 1361.8450 0.0000 0.0000 1730.3036 -7470.7013 295.9648 -9201.0050 -7412.6841 299.1196 -651.7863 -624.6195 30265.7962 -517.0468 -459.1625
ENERGY: 600000 3.4943 11.8709 19.7161 0.0000 -10597.5227 1468.4972 0.0000 0.0000 1740.8687 -7353.0755 297.7719 -9093.9443 -7381.5796 299.0089 310.2837 394.0581 30117.4877 -267.2111 -210.8075
ENERGY: 900000 2.3455 16.9477 21.0306 0.0000 -10622.9684 1440.8047 0.0000 0.0000 1744.5194 -7397.3204 298.3964 -9141.8399 -7386.5028 297.1189 157.9519 198.1883 30094.8215 -68.6632 -17.5194
ENERGY: 1200000 0.8327 14.2427 20.8305 0.0000 -10627.7669 1447.6059 0.0000 0.0000 1795.0289 -7349.2262 307.0359 -9144.2551 -7392.3620 298.2326 41.4110 69.2002 30478.9307 -113.6955 -56.1969
ENERGY: 1500000 3.6073 9.0441 19.2722 0.0000 -10666.3287 1432.7636 0.0000 0.0000 1718.6554 -7482.9860 293.9724 -9201.6414 -7397.9755 297.9568 -301.1452 -222.0723 30297.2180 -165.7285 -102.8433
TCL: Running FEP window  11: Lambda1 0.4999999999999996 Lambda2 0.4499999999999996 [dLambda -0.04999999999999999]
TCL: Setting parameter firsttimestep to 0
TCL: Setting parameter alchLambda to 0.4999999999999996
Info: NONBONDED TABLE R-SQUARED SPACING: 0.0625
Info: NONBONDED TABLE SIZE: 705 POINTS
TCL: Setting parameter alchLambda2 to 0.4499999999999996
Info: NONBONDED TABLE R-SQUARED SPACING: 0.0625
Info: NONBONDED TABLE SIZE: 705 POINTS
TCL: Running for 1500000 steps
ETITLE: TS BOND ANGLE DIHED IMPRP ELECT VDW BOUNDARY MISC KINETIC TOTAL TEMP POTENTIAL TOTALAVG TEMPAVG PRESSURE GPRESSURE VOLUME PRESSAVG GPRESSAVG
ENERGY: 0 3.6073 9.0441 19.2722 0.0000 -10666.2465 1433.2292 0.0000 0.0000 1717.8121 -7483.2815 293.8281 -9201.0936 -7483.2815 293.8281 -315.2413 -221.4534 30297.2180 -315.2413 -221.4534
ENERGY: 300000 2.2167 8.5196 19.6830 0.0000 -10702.7474 1538.5758 0.0000 0.0000 1761.1954 -7372.5571 301.2488 -9133.7525 -7415.4484 296.0313 1080.9695 1067.4822 30111.0239 -109.1760 -49.3896
ENERGY: 600000 1.1251 8.6306 19.2293 0.0000 -10590.3098 1375.4386 0.0000 0.0000 1781.4504 -7404.4358 304.7133 -9185.8862 -7425.6646 297.9160 -426.2965 -384.1157 30302.7426 -181.0112 -131.7759
ENERGY: 900000 1.7501 10.3131 20.1552 0.0000 -10554.1194 1388.7473 0.0000 0.0000 1724.8162 -7408.3374 295.0262 -9133.1537 -7421.3711 297.7883 -357.9115 -272.3128 30226.1778 -154.1796 -92.2225
ENERGY: 1200000 3.6503 13.6891 22.2695 0.0000 -10727.1951 1474.1026 0.0000 0.0000 1769.2092 -7444.2744 302.6195 -9213.4836 -7419.1407 298.7720 77.1346 84.3483 30378.4922 -37.6690 13.6331
ENERGY: 1500000 2.7891 13.7015 18.1727 0.0000 -10689.5889 1493.9356 0.0000 0.0000 1747.9773 -7413.0128 298.9878 -9160.9901 -7415.8378 298.7948 728.8147 767.1444 29867.7994 46.8670 96.6674
TCL: Running FEP window  12: Lambda1 0.4499999999999996 Lambda2 0.39999999999999963 [dLambda -0.04999999999999999]
TCL: Setting parameter firsttimestep to 0
TCL: Setting parameter alchLambda to 0.4499999999999996
Info: NONBONDED TABLE R-SQUARED SPACING: 0.0625
Info: NONBONDED TABLE SIZE: 705 POINTS
TCL: Setting parameter alchLambda2 to 0.39999999999999963
Info: NONBONDED TABLE R-SQUARED SPACING: 0.0625
Info: NONBONDED TABLE SIZE: 705 POINTS
TCL: Running for 1500000 steps
ETITLE: TS BOND ANGLE DIHED IMPRP ELECT VDW BOUNDARY MISC KINETIC TOTAL TEMP POTENTIAL TOTALAVG TEMPAVG PRESSURE GPRESSURE VOLUME PRESSAVG GPRESSAVG
ENERGY: 0 2.7891 13.7015 18.1727 0.0000 -10689.5897 1494.0611 0.0000 0.0000 1747.1266 -7413.7387 298.8423 -9160.8653 -7413.7387 298.8423 668.2082 758.1225 29867.7994 668.2082 758.1225
ENERGY: 300000 2.0656 9.9368 19.9045 0.0000 -10460.2657 1377.0131 0.0000 0.0000 1717.7378 -7333.6079 293.8154 -9051.3457 -7373.0483 300.5091 -375.4492 -379.7407 30618.0906 324.9316 359.2702
ENERGY: 600000 2.6715 21.5212 20.4696 0.0000 -10668.2961 1471.7950 0.0000 0.0000 1774.1280 -7377.7109 303.4608 -9151.8389 -7371.1791 300.8155 342.0631 384.6858 30154.1070 275.2398 331.7542
ENERGY: 900000 2.7366 9.3098 21.3717 0.0000 -10617.9675 1432.4831 0.0000 0.0000 1741.7536 -7410.3127 297.9233 -9152.0663 -7377.6591 300.9159 -215.8577 -57.4831 30203.2267 88.2589 158.1864
ENERGY: 1200000 3.9247 10.8825 19.0932 0.0000 -10546.5106 1352.3759 0.0000 0.0000 1782.7584 -7377.4758 304.9371 -9160.2342 -7372.4180 300.7064 -773.1973 -637.6570 30258.0531 76.5660 149.6491
ENERGY: 1500000 4.4880 13.7753 20.6124 0.0000 -10646.6296 1458.0223 0.0000 0.0000 1819.4052 -7330.3264 311.2054 -9149.7315 -7380.0834 300.8759 241.0121 314.0939 30098.3796 38.8971 108.6774
TCL: Running FEP window  13: Lambda1 0.39999999999999963 Lambda2 0.34999999999999964 [dLambda -0.04999999999999999]
TCL: Setting parameter firsttimestep to 0
TCL: Setting parameter alchLambda to 0.39999999999999963
Info: NONBONDED TABLE R-SQUARED SPACING: 0.0625
Info: NONBONDED TABLE SIZE: 705 POINTS
TCL: Setting parameter alchLambda2 to 0.34999999999999964
Info: NONBONDED TABLE R-SQUARED SPACING: 0.0625
Info: NONBONDED TABLE SIZE: 705 POINTS
TCL: Running for 1500000 steps
ETITLE: TS BOND ANGLE DIHED IMPRP ELECT VDW BOUNDARY MISC KINETIC TOTAL TEMP POTENTIAL TOTALAVG TEMPAVG PRESSURE GPRESSURE VOLUME PRESSAVG GPRESSAVG
ENERGY: 0 4.4880 13.7753 20.6124 0.0000 -10646.6300 1457.5388 0.0000 0.0000 1818.5602 -7331.6553 311.0609 -9150.2154 -7331.6553 311.0609 214.0469 302.4421 30098.3796 214.0469 302.4421
ENERGY: 300000 2.3729 11.4036 19.7792 0.0000 -10529.9863 1404.7449 0.0000 0.0000 1720.0704 -7371.6152 294.2144 -9091.6856 -7379.1876 302.6746 13.3598 101.7023 30166.3545 72.1501 149.2549
ENERGY: 600000 4.6471 17.5601 20.1635 0.0000 -10554.1223 1401.2593 0.0000 0.0000 1786.6334 -7323.8589 305.5999 -9110.4923 -7375.1120 301.9442 -218.8254 -136.2534 30058.0386 -21.0475 44.7710
ENERGY: 900000 3.9740 10.5548 19.5949 0.0000 -10568.8140 1415.9885 0.0000 0.0000 1783.2414 -7335.4603 305.0197 -9118.7017 -7370.8995 301.6079 91.1318 143.1999 29890.2108 0.6350 54.2827
ENERGY: 1200000 2.4184 20.3762 19.6300 0.0000 -10656.4652 1544.8837 0.0000 0.0000 1752.6700 -7316.4869 299.7905 -9069.1569 -7378.0490 300.7994 1230.1928 1242.8608 29938.6558 74.1085 125.0766
ENERGY: 1500000 1.4254 14.6229 20.9324 0.0000 -10454.5578 1263.2674 0.0000 0.0000 1710.6733 -7443.6364 292.6071 -9154.3097 -7383.0176 300.5207 -1236.1806 -1182.5181 30257.1504 -90.9058 -37.7472
TCL: Running FEP window  14: Lambda1 0.34999999999999964 Lambda2 0.29999999999999966 [dLambda -0.04999999999999999]
TCL: Setting parameter firsttimestep to 0
TCL: Setting parameter alchLambda to 0.34999999999999964
Info: NONBONDED TABLE R-SQUARED SPACING: 0.0625
Info: NONBONDED TABLE SIZE: 705 POINTS
TCL: Setting parameter alchLambda2 to 0.29999999999999966
Info: NONBONDED TABLE R-SQUARED SPACING: 0.0625
Info: NONBONDED TABLE SIZE: 705 POINTS
TCL: Running for 1500000 steps
ETITLE: TS BOND ANGLE DIHED IMPRP ELECT VDW BOUNDARY MISC KINETIC TOTAL TEMP POTENTIAL TOTALAVG TEMPAVG PRESSURE GPRESSURE VOLUME PRESSAVG GPRESSAVG
ENERGY: 0 1.4254 14.6229 20.9324 0.0000 -10454.5578 1263.2340 0.0000 0.0000 1709.7823 -7444.5608 292.4547 -9154.3431 -7444.5608 292.4547 -1266.8086 -1192.4957 30257.1504 -1266.8086 -1192.4957
ENERGY: 300000 5.6941 18.4312 18.8927 0.0000 -10743.3642 1518.6379 0.0000 0.0000 1701.2985 -7480.4097 291.0035 -9181.7082 -7409.9450 296.7673 539.4169 579.4955 29834.0477 -182.4786 -129.9517
ENERGY: 600000 3.1016 15.2008 21.4874 0.0000 -10642.2369 1492.1285 0.0000 0.0000 1777.1694 -7333.1493 303.9811 -9110.3187 -7369.5019 299.8907 653.3226 721.6579 30217.0138 -8.4579 53.8556
ENERGY: 900000 2.7327 16.0890 19.5961 0.0000 -10460.9155 1348.4209 0.0000 0.0000 1737.9953 -7336.0815 297.2804 -9074.0768 -7368.1870 301.2011 -510.1975 -434.0876 30055.3950 -60.8022 2.3509
ENERGY: 1200000 2.1673 13.0591 19.3650 0.0000 -10600.0013 1414.7252 0.0000 0.0000 1768.7231 -7381.9616 302.5364 -9150.6848 -7374.3505 301.1447 -150.9785 -78.7447 30333.1881 -18.9930 45.6547
ENERGY: 1500000 4.2890 14.4483 18.8605 0.0000 -10606.6955 1412.3010 0.0000 0.0000 1760.1425 -7396.6542 301.0687 -9156.7967 -7370.4121 301.1366 -244.1635 -163.0196 29975.8851 -14.4528 51.4264
TCL: Running FEP window  15: Lambda1 0.29999999999999966 Lambda2 0.24999999999999967 [dLambda -0.04999999999999999]
TCL: Setting parameter firsttimestep to 0
TCL: Setting parameter alchLambda to 0.29999999999999966
Info: NONBONDED TABLE R-SQUARED SPACING: 0.0625
Info: NONBONDED TABLE SIZE: 705 POINTS
TCL: Setting parameter alchLambda2 to 0.24999999999999967
Info: NONBONDED TABLE R-SQUARED SPACING: 0.0625
Info: NONBONDED TABLE SIZE: 705 POINTS
TCL: Running for 1500000 steps
ETITLE: TS BOND ANGLE DIHED IMPRP ELECT VDW BOUNDARY MISC KINETIC TOTAL TEMP POTENTIAL TOTALAVG TEMPAVG PRESSURE GPRESSURE VOLUME PRESSAVG GPRESSAVG
ENERGY: 0 4.2890 14.4483 18.8605 0.0000 -10606.6956 1412.6244 0.0000 0.0000 1759.2691 -7397.2042 300.9193 -9156.4733 -7397.2042 300.9193 -249.0354 -168.0979 29975.8851 -249.0354 -168.0979
ENERGY: 300000 2.7520 9.0224 18.5883 0.0000 -10686.8137 1411.8516 0.0000 0.0000 1797.8668 -7446.7325 307.5213 -9244.5994 -7393.9420 305.1465 -197.3676 -169.4992 29688.4874 248.8972 300.2638
ENERGY: 600000 3.0594 9.8272 19.4238 0.0000 -10757.5625 1481.3901 0.0000 0.0000 1716.6745 -7527.1876 293.6335 -9243.8620 -7408.4416 303.3393 136.3272 232.3483 30009.5734 130.6813 202.8421
ENERGY: 900000 3.7707 19.6846 21.3269 0.0000 -10596.0859 1438.6133 0.0000 0.0000 1757.6548 -7355.0357 300.6431 -9112.6904 -7406.6257 302.2304 -274.8445 -183.9304 30667.1000 99.3094 167.5363
ENERGY: 1200000 3.2866 12.4530 19.2998 0.0000 -10572.8405 1414.6134 0.0000 0.0000 1795.1883 -7327.9995 307.0632 -9123.1878 -7404.9898 303.1104 -154.2754 -181.6129 30358.8784 223.4005 288.6742
ENERGY: 1500000 5.2728 12.1836 21.1481 0.0000 -10673.6390 1493.9260 0.0000 0.0000 1752.2704 -7388.8380 299.7221 -9141.1084 -7400.8234 302.6161 302.3738 328.9205 30318.6466 189.9120 248.5493
TCL: Running FEP window  16: Lambda1 0.24999999999999967 Lambda2 0.19999999999999968 [dLambda -0.04999999999999999]
TCL: Setting parameter firsttimestep to 0
TCL: Setting parameter alchLambda to 0.24999999999999967
Info: NONBONDED TABLE R-SQUARED SPACING: 0.0625
Info: NONBONDED TABLE SIZE: 705 POINTS
TCL: Setting parameter alchLambda2 to 0.19999999999999968
Info: NONBONDED TABLE R-SQUARED SPACING: 0.0625
Info: NONBONDED TABLE SIZE: 705 POINTS
TCL: Running for 1500000 steps
ETITLE: TS BOND ANGLE DIHED IMPRP ELECT VDW BOUNDARY MISC KINETIC TOTAL TEMP POTENTIAL TOTALAVG TEMPAVG PRESSURE GPRESSURE VOLUME PRESSAVG GPRESSAVG
ENERGY: 0 5.2728 12.1836 21.1481 0.0000 -10673.6387 1494.0166 0.0000 0.0000 1751.3768 -7389.6408 299.5693 -9141.0176 -7389.6408 299.5693 251.2350 322.8704 30318.6466 251.2350 322.8704
ENERGY: 300000 2.7937 10.8023 20.0474 0.0000 -10425.2271 1282.2302 0.0000 0.0000 1809.1163 -7300.2372 309.4455 -9109.3534 -7360.7521 300.8275 -1114.6287 -1057.1015 30241.0977 -301.2226 -248.7887
ENERGY: 600000 0.8391 8.5475 20.8875 0.0000 -10677.0464 1471.1397 0.0000 0.0000 1736.9274 -7438.7052 297.0978 -9175.6326 -7387.0415 300.3474 314.8746 374.1586 30060.6175 -224.5835 -164.9982
ENERGY: 900000 4.6332 10.9912 18.5825 0.0000 -10616.0055 1439.3500 0.0000 0.0000 1756.3690 -7386.0796 300.4232 -9142.4486 -7389.2113 300.7725 138.2194 197.0937 29911.1284 -131.3517 -61.8765
ENERGY: 1200000 3.8237 9.7901 20.2006 0.0000 -10581.3620 1418.8326 0.0000 0.0000 1779.6750 -7349.0401 304.4096 -9128.7151 -7391.2519 301.0510 -22.2114 96.3971 29952.9533 -137.2573 -62.3574
ENERGY: 1500000 3.9697 9.9515 21.2037 0.0000 -10519.4982 1396.2294 0.0000 0.0000 1713.2138 -7374.9301 293.0416 -9088.1438 -7393.7123 300.6858 -57.9308 -17.1298 30127.0191 -139.9355 -70.6103
TCL: Running FEP window  17: Lambda1 0.19999999999999968 Lambda2 0.1499999999999997 [dLambda -0.04999999999999999]
TCL: Setting parameter firsttimestep to 0
TCL: Setting parameter alchLambda to 0.19999999999999968
Info: NONBONDED TABLE R-SQUARED SPACING: 0.0625
Info: NONBONDED TABLE SIZE: 705 POINTS
TCL: Setting parameter alchLambda2 to 0.1499999999999997
Info: NONBONDED TABLE R-SQUARED SPACING: 0.0625
Info: NONBONDED TABLE SIZE: 705 POINTS
TCL: Running for 1500000 steps
ETITLE: TS BOND ANGLE DIHED IMPRP ELECT VDW BOUNDARY MISC KINETIC TOTAL TEMP POTENTIAL TOTALAVG TEMPAVG PRESSURE GPRESSURE VOLUME PRESSAVG GPRESSAVG
ENERGY: 0 3.9697 9.9515 21.2037 0.0000 -10519.4986 1396.0329 0.0000 0.0000 1712.3423 -7375.9984 292.8925 -9088.3407 -7375.9984 292.8925 -106.5316 -22.2489 30127.0191 -106.5316 -22.2489
ENERGY: 300000 2.8705 8.6463 21.5252 0.0000 -10660.6392 1447.9978 0.0000 0.0000 1733.3610 -7446.2384 296.4877 -9179.5994 -7392.5658 298.9998 -180.1373 -108.8664 30367.5527 -12.8609 35.5936
ENERGY: 600000 4.0342 16.3137 19.5525 0.0000 -10574.6871 1391.1784 0.0000 0.0000 1707.7716 -7435.8366 292.1107 -9143.6082 -7385.9991 300.1228 -70.6423 -13.5002 29930.0549 -127.9990 -73.6032
ENERGY: 900000 6.3470 13.3642 20.8770 0.0000 -10764.2546 1542.6562 0.0000 0.0000 1812.7249 -7368.2854 310.0628 -9181.0103 -7383.7980 301.1239 742.7120 857.0963 29671.2633 136.8220 199.7255
ENERGY: 1200000 2.8900 12.1258 21.0251 0.0000 -10682.9789 1465.6699 0.0000 0.0000 1754.0779 -7427.1902 300.0313 -9181.2681 -7389.8900 300.1712 186.5053 251.7921 29890.2586 221.4539 282.4677
ENERGY: 1500000 3.6821 10.9622 20.2796 0.0000 -10550.4001 1382.7925 0.0000 0.0000 1754.2374 -7378.4464 300.0586 -9132.6837 -7385.5120 300.2424 -489.7044 -465.8298 30453.0100 125.7859 177.8676
TCL: Running FEP window  18: Lambda1 0.1499999999999997 Lambda2 0.09999999999999969 [dLambda -0.05 ]
TCL: Setting parameter firsttimestep to 0
TCL: Setting parameter alchLambda to 0.1499999999999997
Info: NONBONDED TABLE R-SQUARED SPACING: 0.0625
Info: NONBONDED TABLE SIZE: 705 POINTS
TCL: Setting parameter alchLambda2 to 0.09999999999999969
Info: NONBONDED TABLE R-SQUARED SPACING: 0.0625
Info: NONBONDED TABLE SIZE: 705 POINTS
TCL: Running for 1500000 steps
ETITLE: TS BOND ANGLE DIHED IMPRP ELECT VDW BOUNDARY MISC KINETIC TOTAL TEMP POTENTIAL TOTALAVG TEMPAVG PRESSURE GPRESSURE VOLUME PRESSAVG GPRESSAVG
ENERGY: 0 3.6821 10.9622 20.2796 0.0000 -10550.3998 1383.0003 0.0000 0.0000 1753.3689 -7379.1068 299.9100 -9132.4756 -7379.1068 299.9100 -547.8490 -470.7370 30453.0100 -547.8490 -470.7370
ENERGY: 300000 2.1414 8.8552 20.9985 0.0000 -10606.1388 1474.2630 0.0000 0.0000 1813.2623 -7286.6183 310.1547 -9099.8807 -7316.5789 303.1627 507.6591 602.8010 30164.6768 -47.9518 30.5751
ENERGY: 600000 4.1385 6.7177 20.7477 0.0000 -10674.8883 1463.7355 0.0000 0.0000 1689.5259 -7490.0228 288.9898 -9179.5487 -7353.2028 301.7583 54.4352 130.4437 30222.5038 20.5376 88.9342
ENERGY: 900000 1.4865 9.6268 19.6030 0.0000 -10755.1465 1444.9173 0.0000 0.0000 1763.9988 -7515.5139 301.7283 -9279.5128 -7372.8156 301.8374 -129.9474 -72.6406 29973.8680 48.2168 122.1836
ENERGY: 1200000 2.0901 15.8138 20.2527 0.0000 -10551.8746 1408.8139 0.0000 0.0000 1733.7539 -7371.1502 296.5549 -9104.9040 -7379.8788 300.9302 -13.2992 35.1844 30107.4599 27.1968 95.4513
ENERGY: 1500000 5.8522 12.6144 19.5025 0.0000 -10807.0950 1552.7834 0.0000 0.0000 1751.2600 -7465.0824 299.5493 -9216.3424 -7390.2938 300.0605 414.7719 577.8358 30100.8201 60.0683 134.1347
TCL: Running FEP window  19: Lambda1 0.09999999999999969 Lambda2 0.049999999999999684 [dLambda -0.05 ]
TCL: Setting parameter firsttimestep to 0
TCL: Setting parameter alchLambda to 0.09999999999999969
Info: NONBONDED TABLE R-SQUARED SPACING: 0.0625
Info: NONBONDED TABLE SIZE: 705 POINTS
TCL: Setting parameter alchLambda2 to 0.049999999999999684
Info: NONBONDED TABLE R-SQUARED SPACING: 0.0625
Info: NONBONDED TABLE SIZE: 705 POINTS
TCL: Running for 1500000 steps
ETITLE: TS BOND ANGLE DIHED IMPRP ELECT VDW BOUNDARY MISC KINETIC TOTAL TEMP POTENTIAL TOTALAVG TEMPAVG PRESSURE GPRESSURE VOLUME PRESSAVG GPRESSAVG
ENERGY: 0 5.8522 12.6144 19.5025 0.0000 -10807.0938 1553.2034 0.0000 0.0000 1750.3939 -7465.5273 299.4012 -9215.9212 -7465.5273 299.4012 489.3618 577.5044 30100.8201 489.3618 577.5044
ENERGY: 300000 6.5304 11.7702 21.5685 0.0000 -10717.4251 1471.2221 0.0000 0.0000 1713.1964 -7493.1374 293.0386 -9206.3338 -7432.0060 298.5791 -259.7903 -195.3635 30362.1456 19.2018 76.3734
ENERGY: 600000 2.4609 13.7919 19.5297 0.0000 -10717.4284 1514.1904 0.0000 0.0000 1769.8688 -7397.5868 302.7323 -9167.4556 -7398.7646 299.0432 546.3888 617.3323 30134.5971 70.9327 140.3859
ENERGY: 900000 2.1759 17.2247 19.6046 0.0000 -10571.9760 1392.0470 0.0000 0.0000 1802.3267 -7338.5972 308.2842 -9140.9239 -7393.8009 299.7429 -249.8641 -211.2039 30055.4579 46.9414 117.6301
ENERGY: 1200000 3.6242 14.3466 19.4935 0.0000 -10536.7208 1411.2344 0.0000 0.0000 1768.8816 -7319.1405 302.5635 -9088.0221 -7394.1736 300.4592 -105.4381 -85.0700 30429.4543 64.3063 121.4411
ENERGY: 1500000 5.2775 11.6858 19.8273 0.0000 -10669.1417 1533.1619 0.0000 0.0000 1716.1612 -7383.0280 293.5457 -9099.1892 -7401.4937 299.3895 1188.4813 1229.0378 29734.4301 47.9915 107.0404
TCL: Running FEP window  20: Lambda1 0.049999999999999684 Lambda2 0.0    [dLambda -0.049999999999999684]
TCL: Setting parameter firsttimestep to 0
TCL: Setting parameter alchLambda to 0.049999999999999684
Info: NONBONDED TABLE R-SQUARED SPACING: 0.0625
Info: NONBONDED TABLE SIZE: 705 POINTS
TCL: Setting parameter alchLambda2 to 0.0
Info: NONBONDED TABLE R-SQUARED SPACING: 0.0625
Info: NONBONDED TABLE SIZE: 705 POINTS
TCL: Running for 1500000 steps
ETITLE: TS BOND ANGLE DIHED IMPRP ELECT VDW BOUNDARY MISC KINETIC TOTAL TEMP POTENTIAL TOTALAVG TEMPAVG PRESSURE GPRESSURE VOLUME PRESSAVG GPRESSAVG
ENERGY: 0 5.2775 11.6858 19.8273 0.0000 -10669.1408 1532.1473 0.0000 0.0000 1715.2901 -7384.9127 293.3968 -9100.2029 -7384.9127 293.3968 1126.9946 1223.1471 29734.4301 1126.9946 1223.1471
ENERGY: 300000 3.6470 16.9682 20.0662 0.0000 -10585.2880 1408.7304 0.0000 0.0000 1750.3540 -7385.5222 299.3944 -9135.8763 -7379.9876 298.2578 -0.1295 -18.6511 29758.6496 208.3114 286.6240
ENERGY: 600000 2.3306 14.8316 19.1268 0.0000 -10540.9244 1420.5127 0.0000 0.0000 1739.2606 -7344.8621 297.4969 -9084.1227 -7367.4859 298.7789 -110.9661 -127.0813 30705.8524 221.4993 275.3988
ENERGY: 900000 2.0489 11.0305 22.5619 0.0000 -10625.9990 1420.5050 0.0000 0.0000 1803.4770 -7366.3757 308.4809 -9169.8527 -7386.0449 299.7693 84.8909 162.8171 29466.2056 89.1770 143.4237
ENERGY: 1200000 2.5957 9.2674 20.6075 0.0000 -10513.5925 1386.3352 0.0000 0.0000 1721.0632 -7373.7234 294.3842 -9094.7866 -7390.8503 299.0235 -315.6351 -276.0393 30221.6194 22.2803 79.0412
ENERGY: 1500000 2.2154 15.7239 20.5123 0.0000 -10598.2751 1423.0071 0.0000 0.0000 1787.9339 -7348.8824 305.8223 -9136.8163 -7387.4704 299.0659 -247.1541 -182.1805 30224.0676 34.0433 94.6852
TCL: Exiting due to exit command.
