Info: SIMULATION PARAMETERS:
Info: TIMESTEP               2
Info: NUMBER OF STEPS        0
Info: STEPS PER CYCLE        10
Info: PERIODIC CELL BASIS 1  32.7698 0 0
Info: PERIODIC CELL BASIS 2  0 29.0007 0
Info: PERIODIC CELL BASIS 3  0 0 31.9456
Info: PERIODIC CELL CENTER   0 0 0
Info: WRAPPING WATERS AROUND PERIODIC BOUNDARIES ON OUTPUT.
Info: WRAPPING ALL CLUSTERS AROUND PERIODIC BOUNDARIES ON OUTPUT.
Info: FIRST LDB TIMESTEP     50
Info: LAST LDB TIMESTEP     -1
Info: HOM BACKGROUND SCALING 1
Info: PME BACKGROUND SCALING 1
Info: MIN ATOMS PER PATCH    40
Info: EMPTY PATCH LOAD       40 ATOMS
Info: VELOCITY FILE          mobley_5393242_equil.vel
Info: CENTER OF MASS MOVING INITIALLY? NO
Info: DIELECTRIC             1
Info: EXCLUDE                SCALED ONE-FOUR
Info: 1-4 ELECTROSTATICS SCALED BY 0.833333
Info: MODIFIED 1-4 VDW PARAMETERS WILL BE USED
Info: DCD FILENAME           mobley_5393242_prod.dcd
Info: DCD FREQUENCY          100000
Info: DCD FIRST STEP         100000
Info: DCD FILE WILL CONTAIN UNIT CELL DATA
Info: XST FILENAME           mobley_5393242_prod.xst
Info: XST FREQUENCY          100000
Info: NO VELOCITY DCD OUTPUT
Info: NO FORCE DCD OUTPUT
Info: OUTPUT FILENAME        mobley_5393242_prod
Info: BINARY OUTPUT FILES WILL BE USED
Info: RESTART FILENAME       mobley_5393242_prod.restart
Info: RESTART FREQUENCY      100000
Info: BINARY RESTART FILES WILL BE USED
Info: CUTOFF                 9
Info: PAIRLIST DISTANCE      11
Info: PAIRLIST SHRINK RATE   0.01
Info: PAIRLIST GROW RATE     0.01
Info: PAIRLIST TRIGGER       0.3
Info: PAIRLISTS PER CYCLE    2
Info: PAIRLISTS ENABLED
Info: MARGIN                 2
Info: HYDROGEN GROUP CUTOFF  2.5
Info: PATCH DIMENSION        15.5
Info: ENERGY OUTPUT STEPS    100000
Info: ENERGY EVALUATION STEPS    100000
Info: OUTPUT ENERGY PRECISION 4
Info: CROSSTERM ENERGY INCLUDED IN DIHEDRAL
Info: TIMING OUTPUT STEPS    1000000
Info: PRESSURE OUTPUT STEPS  100000
Info: ALCHEMICAL FEP ON
Info: FEP CURRENT LAMBDA VALUE     0
Info: FEP COMPARISON LAMBDA VALUE  0.05
Info: FEP INTRA-ALCHEMICAL NON-BONDED INTERACTIONS WILL BE RETAINED
Info: FEP INTRA-ALCHEMICAL BONDED INTERACTIONS WILL BE RETAINED
Info: FEP VDW SHIFTING COEFFICIENT 5
Info: FEP ELEC. ACTIVE FOR ANNIHILATED PARTICLES BETWEEN LAMBDA = 0 AND LAMBDA = 0.5
Info: FEP ELEC. ACTIVE FOR EXNIHILATED PARTICLES BETWEEN LAMBDA = 0.5 AND LAMBDA = 1
Info: FEP VDW ACTIVE FOR ANNIHILATED PARTICLES BETWEEN LAMBDA = 0 AND LAMBDA = 1
Info: FEP VDW ACTIVE FOR EXNIHILATED PARTICLES BETWEEN LAMBDA = 0 AND LAMBDA = 1
Info: FEP BOND ACTIVE FOR ANNIHILATED PARTICLES BETWEEN LAMBDA = 1 AND LAMBDA = 1
Info: FEP BOND ACTIVE FOR EXNIHILATED PARTICLES BETWEEN LAMBDA = 0 AND LAMBDA = 0
Info: LANGEVIN DYNAMICS ACTIVE
Info: LANGEVIN TEMPERATURE   300
Info: LANGEVIN USING BBK INTEGRATOR
Info: LANGEVIN DAMPING COEFFICIENT IS 1 INVERSE PS
Info: LANGEVIN DYNAMICS APPLIED TO HYDROGENS
Info: LANGEVIN PISTON PRESSURE CONTROL ACTIVE
Info:        TARGET PRESSURE IS 1.01325 BAR
Info:     OSCILLATION PERIOD IS 50 FS
Info:             DECAY TIME IS 25 FS
Info:     PISTON TEMPERATURE IS 300 K
Info:       PRESSURE CONTROL IS GROUP-BASED
Info:    INITIAL STRAIN RATE IS 9.67022e-05 9.67022e-05 9.67022e-05
Info:       CELL FLUCTUATION IS ISOTROPIC
Info: PARTICLE MESH EWALD (PME) ACTIVE
Info: PME TOLERANCE               1e-06
Info: PME EWALD COEFFICIENT       0.348832
Info: PME INTERPOLATION ORDER     4
Info: PME GRID DIMENSIONS         36 32 32
Info: PME MAXIMUM GRID SPACING    1
Info: PME CALCULATION WILL BE PERFORMED ON GPU
Info: FULL ELECTROSTATIC EVALUATION FREQUENCY      2
Info: USING VERLET I (r-RESPA) MTS SCHEME.
Info: C1 SPLITTING OF LONG RANGE ELECTROSTATICS
Info: PLACING ATOMS IN PATCHES BY HYDROGEN GROUPS
Info: RIGID BONDS TO HYDROGEN : ALL
Info:         ERROR TOLERANCE : 1e-08
Info:          MAX ITERATIONS : 100
Info: RIGID WATER USING SETTLE ALGORITHM
Info: RANDOM NUMBER SEED     1744092720
Info: USE HYDROGEN BONDS?    NO
Info: Using AMBER format force field!
Info: AMBER PARM FILE        mobley_5393242.prmtop
Info: COORDINATE PDB         mobley_5393242.pdb
Info: Exclusions will be read from PARM file!
Info: SCNB (VDW SCALING)     2
Info: USING ARITHMETIC MEAN TO COMBINE L-J SIGMA PARAMETERS
Info: BINARY COORDINATES     mobley_5393242_equil.coor
Info: SUMMARY OF PARAMETERS:
Info: 13 BONDS
Info: 22 ANGLES
Info:   22 HARMONIC
Info:   0 COSINE-BASED
Info: 16 DIHEDRAL
Info: 0 IMPROPER
Info: 0 CROSSTERM
Info: 0 VDW
Info: 66 VDW_PAIRS
Info: 0 NBTHOLE_PAIRS
Info: To read alchdata from file: mobley_5393242.pdb
Info: To read alchflag data from column: 5
Info: STRUCTURE SUMMARY:
Info: 2968 ATOMS
Info: 2968 BONDS
Info: 71 ANGLES
Info: 97 DIHEDRALS
Info: 0 IMPROPERS
Info: 0 CROSSTERMS
Info: 3117 EXCLUSIONS
Info: 2949 RIGID BONDS
Info: ALCH: 0 ATOMS TO DISAPPEAR IN FINAL STATE
Info: ALCH: 40 ATOMS TO APPEAR IN FINAL STATE
Info: 5955 DEGREES OF FREEDOM
Info: 995 HYDROGEN GROUPS
Info: 4 ATOMS IN LARGEST HYDROGEN GROUP
Info: 995 MIGRATION GROUPS
Info: 4 ATOMS IN LARGEST MIGRATION GROUP
Info: TOTAL MASS = 17888 amu
Info: TOTAL CHARGE = 0.000200048 e
Info: MASS DENSITY = 0.978423 g/cm^3
Info: ATOM DENSITY = 0.0977622 atoms/A^3
Info: ADDED 0 IMPLICIT EXCLUSIONS
Info: NONBONDED TABLE R-SQUARED SPACING: 0.0625
Info: NONBONDED TABLE SIZE: 705 POINTS
Info: REMOVING COM VELOCITY -0.0279397 -0.0215216 -0.0332075
Info: Use 3D box decompostion in PME FFT.
Info: Updated CUDA force table with 4096 elements.
Info: Updated CUDA LJ table with 11 x 11 elements.
Info: Found 43 unique exclusion lists needing 196 bytes
TCL: Running for 1500000 steps
ETITLE: TS BOND ANGLE DIHED IMPRP ELECT VDW BOUNDARY MISC KINETIC TOTAL TEMP POTENTIAL TOTALAVG TEMPAVG PRESSURE GPRESSURE VOLUME PRESSAVG GPRESSAVG
ENERGY: 0 3.2045 15.9872 22.9102 0.0000 -11041.9911 1524.2538 0.0000 0.0000 1759.0155 -7716.6200 297.2886 -9475.6355 -7716.6200 297.2886 552.9112 641.0405 30359.3970 552.9112 641.0405
ENERGY: 300000 10.1787 18.1711 17.7868 0.0000 -10956.2456 1429.0088 0.0000 0.0000 1764.5165 -7716.5838 298.2183 -9481.1003 -7682.3113 301.4091 -98.0731 -0.0691 29826.5020 33.5526 125.5650
ENERGY: 600000 4.5320 23.0351 20.2481 0.0000 -10884.0254 1440.3005 0.0000 0.0000 1782.6058 -7613.3039 301.2756 -9395.9098 -7670.6996 300.8981 -94.0248 20.4754 30601.8665 -86.9292 -15.3307
ENERGY: 900000 7.7414 21.4367 16.1335 0.0000 -10903.1208 1426.4042 0.0000 0.0000 1780.4027 -7651.0023 300.9032 -9431.4050 -7678.3295 300.7276 -524.3838 -399.5296 30797.9195 -181.3977 -108.2551
ENERGY: 1200000 6.0379 22.4239 18.0003 0.0000 -10999.4631 1478.6007 0.0000 0.0000 1753.7128 -7720.6876 296.3924 -9474.4003 -7676.5214 300.4236 196.8756 269.4430 29841.7192 -32.5873 33.3499
ENERGY: 1500000 3.6680 21.8155 19.6575 0.0000 -11011.1193 1494.6754 0.0000 0.0000 1741.9672 -7729.3356 294.4073 -9471.3028 -7672.4083 300.4779 131.5030 151.7194 30590.5798 -95.4787 -32.1004
TCL: Running FEP window   2: Lambda1 0.05   Lambda2 0.1    [dLambda 0.05  ]
TCL: Setting parameter firsttimestep to 0
TCL: Setting parameter alchLambda to 0.05
Info: NONBONDED TABLE R-SQUARED SPACING: 0.0625
Info: NONBONDED TABLE SIZE: 705 POINTS
TCL: Setting parameter alchLambda2 to 0.1
Info: NONBONDED TABLE R-SQUARED SPACING: 0.0625
Info: NONBONDED TABLE SIZE: 705 POINTS
TCL: Running for 1500000 steps
ETITLE: TS BOND ANGLE DIHED IMPRP ELECT VDW BOUNDARY MISC KINETIC TOTAL TEMP POTENTIAL TOTALAVG TEMPAVG PRESSURE GPRESSURE VOLUME PRESSAVG GPRESSAVG
ENERGY: 0 3.6680 21.8155 19.6575 0.0000 -11011.1177 1501.2968 0.0000 0.0000 1741.0350 -7723.6449 294.2498 -9464.6799 -7723.6449 294.2498 97.2826 168.3829 30590.5798 97.2826 168.3829
ENERGY: 300000 5.5273 17.9868 19.7467 0.0000 -10884.7011 1423.7903 0.0000 0.0000 1778.4758 -7639.1742 300.5776 -9417.6500 -7654.7038 301.6723 -172.3919 -66.5126 29970.0564 -172.3506 -80.1577
ENERGY: 600000 9.3719 25.5617 18.5175 0.0000 -10965.3718 1366.9315 0.0000 0.0000 1752.1174 -7792.8717 296.1228 -9544.9891 -7692.8577 301.2601 -1202.6643 -1108.1194 29923.8291 -198.7146 -95.0553
ENERGY: 900000 6.8107 23.3434 20.5045 0.0000 -11030.1177 1508.2840 0.0000 0.0000 1713.2645 -7757.9105 289.5563 -9471.1750 -7706.9372 298.9345 602.8921 703.1823 29901.8052 -127.7773 -38.4137
ENERGY: 1200000 3.9938 10.8368 21.5088 0.0000 -10766.0688 1373.3187 0.0000 0.0000 1793.4595 -7562.9512 303.1099 -9356.4106 -7685.9111 299.2865 -255.5920 -207.0070 30289.7870 -119.7478 -36.6870
ENERGY: 1500000 6.6945 21.2785 22.2713 0.0000 -11055.6837 1491.2438 0.0000 0.0000 1839.5399 -7674.6558 310.8979 -9514.1957 -7677.5130 300.5231 394.5560 439.1916 29848.2013 -100.3682 -21.5297
TCL: Running FEP window   3: Lambda1 0.1    Lambda2 0.15000000000000002 [dLambda 0.05000000000000002]
TCL: Setting parameter firsttimestep to 0
TCL: Setting parameter alchLambda to 0.1
Info: NONBONDED TABLE R-SQUARED SPACING: 0.0625
Info: NONBONDED TABLE SIZE: 705 POINTS
TCL: Setting parameter alchLambda2 to 0.15000000000000002
Info: NONBONDED TABLE R-SQUARED SPACING: 0.0625
Info: NONBONDED TABLE SIZE: 705 POINTS
TCL: Running for 1500000 steps
ETITLE: TS BOND ANGLE DIHED IMPRP ELECT VDW BOUNDARY MISC KINETIC TOTAL TEMP POTENTIAL TOTALAVG TEMPAVG PRESSURE GPRESSURE VOLUME PRESSAVG GPRESSAVG
ENERGY: 0 6.6945 21.2785 22.2713 0.0000 -11055.6827 1495.4078 0.0000 0.0000 1838.6875 -7671.3432 310.7539 -9510.0307 -7671.3432 310.7539 374.4618 462.6664 29848.2013 374.4618 462.6664
ENERGY: 300000 5.3413 18.1183 25.4306 0.0000 -11020.8424 1491.0873 0.0000 0.0000 1829.2995 -7651.5654 309.1672 -9480.8649 -7680.7802 303.2808 443.2552 457.8903 30016.3061 370.7803 430.2296
ENERGY: 600000 9.8819 18.8902 18.0783 0.0000 -11009.3128 1482.9458 0.0000 0.0000 1780.3027 -7699.2138 300.8863 -9479.5165 -7678.5430 301.1384 451.1671 557.7442 29896.8125 307.5740 386.9585
ENERGY: 900000 8.1995 18.7280 18.7438 0.0000 -10912.9927 1409.1335 0.0000 0.0000 1770.9935 -7687.1944 299.3130 -9458.1879 -7688.6437 299.2983 -350.6234 -250.0982 30279.3813 281.6389 353.1294
ENERGY: 1200000 7.7917 20.7616 17.9249 0.0000 -10934.7965 1428.8119 0.0000 0.0000 1776.1316 -7683.3748 300.1814 -9459.5064 -7694.5208 299.4589 -245.4650 -179.1545 30108.8320 127.8436 197.8128
ENERGY: 1500000 4.6234 25.0485 24.6395 0.0000 -10761.6951 1335.8554 0.0000 0.0000 1823.6216 -7547.9067 308.2076 -9371.5283 -7681.8821 300.1764 -897.4278 -804.5729 30739.7585 10.6594 84.8045
TCL: Running FEP window   4: Lambda1 0.15000000000000002 Lambda2 0.2    [dLambda 0.04999999999999999]
TCL: Setting parameter firsttimestep to 0
TCL: Setting parameter alchLambda to 0.15000000000000002
Info: NONBONDED TABLE R-SQUARED SPACING: 0.0625
Info: NONBONDED TABLE SIZE: 705 POINTS
TCL: Setting parameter alchLambda2 to 0.2
Info: NONBONDED TABLE R-SQUARED SPACING: 0.0625
Info: NONBONDED TABLE SIZE: 705 POINTS
TCL: Running for 1500000 steps
ETITLE: TS BOND ANGLE DIHED IMPRP ELECT VDW BOUNDARY MISC KINETIC TOTAL TEMP POTENTIAL TOTALAVG TEMPAVG PRESSURE GPRESSURE VOLUME PRESSAVG GPRESSAVG
ENERGY: 0 4.6234 25.0485 24.6395 0.0000 -10761.6957 1338.7023 0.0000 0.0000 1822.7595 -7545.9225 308.0619 -9368.6820 -7545.9225 308.0619 -879.3250 -788.9592 30739.7585 -879.3250 -788.9592
ENERGY: 300000 7.1472 12.6213 25.2069 0.0000 -11076.3303 1541.0105 0.0000 0.0000 1808.4834 -7681.8610 305.6491 -9490.3444 -7641.9625 302.5730 484.6301 545.9769 30310.5650 -48.1832 13.6678
ENERGY: 600000 6.4017 23.2415 22.5874 0.0000 -10993.9389 1433.9334 0.0000 0.0000 1808.8622 -7698.9126 305.7131 -9507.7749 -7682.4664 301.2593 -624.7411 -547.5818 30795.3701 -64.3677 -8.9168
ENERGY: 900000 4.0954 19.2944 21.8574 0.0000 -10895.2628 1419.6063 0.0000 0.0000 1829.2003 -7601.2090 309.1505 -9430.4093 -7669.6487 301.5838 -380.3272 -279.8235 30779.1510 -145.6458 -90.6771
ENERGY: 1200000 4.1951 14.6725 23.5601 0.0000 -10879.1152 1421.7468 0.0000 0.0000 1798.5489 -7616.3919 303.9701 -9414.9408 -7664.1363 302.2739 -483.0098 -370.4647 30804.0478 -142.1786 -78.1265
ENERGY: 1500000 4.3347 21.2982 27.7324 0.0000 -11081.2349 1507.6949 0.0000 0.0000 1785.5234 -7734.6514 301.7687 -9520.1747 -7670.1671 302.3665 277.4109 382.1711 30218.5974 -63.3734 -1.4151
TCL: Running FEP window   5: Lambda1 0.2    Lambda2 0.25   [dLambda 0.04999999999999999]
TCL: Setting parameter firsttimestep to 0
TCL: Setting parameter alchLambda to 0.2
Info: NONBONDED TABLE R-SQUARED SPACING: 0.0625
Info: NONBONDED TABLE SIZE: 705 POINTS
TCL: Setting parameter alchLambda2 to 0.25
Info: NONBONDED TABLE R-SQUARED SPACING: 0.0625
Info: NONBONDED TABLE SIZE: 705 POINTS
TCL: Running for 1500000 steps
ETITLE: TS BOND ANGLE DIHED IMPRP ELECT VDW BOUNDARY MISC KINETIC TOTAL TEMP POTENTIAL TOTALAVG TEMPAVG PRESSURE GPRESSURE VOLUME PRESSAVG GPRESSAVG
ENERGY: 0 4.3347 21.2982 27.7324 0.0000 -11081.2353 1509.8862 0.0000 0.0000 1784.6374 -7733.3465 301.6189 -9517.9838 -7733.3465 301.6189 310.9742 402.2136 30218.5974 310.9742 402.2136
ENERGY: 300000 9.7685 21.2969 23.3037 0.0000 -10815.1803 1338.3465 0.0000 0.0000 1803.6014 -7618.8633 304.8240 -9422.4647 -7685.7520 301.9944 -646.7864 -576.8415 30344.9791 -109.4297 -18.9258
ENERGY: 600000 6.8718 19.3039 19.9011 0.0000 -11087.2414 1576.1098 0.0000 0.0000 1792.1502 -7672.9046 302.8887 -9465.0548 -7674.4868 302.4255 879.0526 968.5331 30449.2268 38.6182 126.3026
ENERGY: 900000 9.5610 19.0896 18.5777 0.0000 -10969.2133 1426.3124 0.0000 0.0000 1787.1162 -7708.5563 302.0379 -9495.6725 -7674.6700 302.5125 133.1730 162.3246 29770.1659 -12.2840 56.7414
ENERGY: 1200000 6.0149 21.0291 17.5765 0.0000 -10938.2069 1408.5851 0.0000 0.0000 1796.6836 -7688.3177 303.6549 -9485.0013 -7677.7018 301.6382 -653.9788 -531.4583 30225.6819 13.0407 76.4573
ENERGY: 1500000 5.6928 22.5591 16.9653 0.0000 -10864.6432 1393.9423 0.0000 0.0000 1714.8748 -7710.6089 289.8285 -9425.4837 -7678.1145 300.8961 -407.0573 -347.4813 30175.5344 -26.3012 41.9764
TCL: Running FEP window   6: Lambda1 0.25   Lambda2 0.3    [dLambda 0.04999999999999999]
TCL: Setting parameter firsttimestep to 0
TCL: Setting parameter alchLambda to 0.25
Info: NONBONDED TABLE R-SQUARED SPACING: 0.0625
Info: NONBONDED TABLE SIZE: 705 POINTS
TCL: Setting parameter alchLambda2 to 0.3
Info: NONBONDED TABLE R-SQUARED SPACING: 0.0625
Info: NONBONDED TABLE SIZE: 705 POINTS
TCL: Running for 1500000 steps
ETITLE: TS BOND ANGLE DIHED IMPRP ELECT VDW BOUNDARY MISC KINETIC TOTAL TEMP POTENTIAL TOTALAVG TEMPAVG PRESSURE GPRESSURE VOLUME PRESSAVG GPRESSAVG
ENERGY: 0 5.6928 22.5591 16.9653 0.0000 -10864.6438 1395.1278 0.0000 0.0000 1713.9857 -7710.3131 289.6782 -9424.2988 -7710.3131 289.6782 -423.6684 -328.2516 30175.5344 -423.6684 -328.2516
ENERGY: 300000 7.9892 15.2840 17.7696 0.0000 -10881.4018 1359.6478 0.0000 0.0000 1804.1856 -7676.5256 304.9227 -9480.7112 -7672.9433 301.8744 -920.9639 -877.5928 30655.5478 -499.1070 -427.6805
ENERGY: 600000 7.2958 15.8604 25.0325 0.0000 -11021.4352 1475.3840 0.0000 0.0000 1751.9308 -7745.9316 296.0912 -9497.8625 -7687.0528 300.7060 166.3904 226.8540 30637.0460 -120.5504 -60.9019
ENERGY: 900000 7.4934 23.6705 19.0125 0.0000 -10944.7295 1381.5457 0.0000 0.0000 1722.8059 -7790.2016 291.1689 -9513.0075 -7692.0743 299.6740 -192.8854 -147.2863 29811.8362 -48.4912 14.8478
ENERGY: 1200000 3.6752 14.1038 17.7689 0.0000 -10779.9588 1300.6677 0.0000 0.0000 1781.1474 -7662.5958 301.0291 -9443.7432 -7687.8566 299.2426 -1406.2368 -1367.6903 31181.6110 -167.9437 -103.2676
ENERGY: 1500000 8.4699 21.6997 24.7231 0.0000 -11219.3701 1591.1320 0.0000 0.0000 1799.4042 -7773.9411 304.1147 -9573.3453 -7696.8897 299.0743 977.9313 1037.1366 30220.0554 -121.0946 -54.3828
TCL: Running FEP window   7: Lambda1 0.3    Lambda2 0.35   [dLambda 0.04999999999999999]
TCL: Setting parameter firsttimestep to 0
TCL: Setting parameter alchLambda to 0.3
Info: NONBONDED TABLE R-SQUARED SPACING: 0.0625
Info: NONBONDED TABLE SIZE: 705 POINTS
TCL: Setting parameter alchLambda2 to 0.35
Info: NONBONDED TABLE R-SQUARED SPACING: 0.0625
Info: NONBONDED TABLE SIZE: 705 POINTS
TCL: Running for 1500000 steps
ETITLE: TS BOND ANGLE DIHED IMPRP ELECT VDW BOUNDARY MISC KINETIC TOTAL TEMP POTENTIAL TOTALAVG TEMPAVG PRESSURE GPRESSURE VOLUME PRESSAVG GPRESSAVG
ENERGY: 0 8.4699 21.6997 24.7231 0.0000 -11219.3718 1590.1922 0.0000 0.0000 1798.5107 -7775.7761 303.9636 -9574.2868 -7775.7761 303.9636 965.2615 1039.6415 30220.0554 965.2615 1039.6415
ENERGY: 300000 4.8331 15.1052 21.1738 0.0000 -10900.2243 1460.4727 0.0000 0.0000 1743.8193 -7654.8203 294.7203 -9398.6395 -7691.6595 302.2559 128.7365 239.2135 30521.4988 284.2008 359.1671
ENERGY: 600000 9.7127 21.6392 18.0658 0.0000 -10857.3742 1448.4070 0.0000 0.0000 1773.9451 -7585.6044 299.8119 -9359.5496 -7682.1866 300.4564 116.0903 133.3432 30767.5174 143.2955 206.8892
ENERGY: 900000 7.3812 12.8604 18.1651 0.0000 -10903.1845 1413.5118 0.0000 0.0000 1820.8350 -7630.4310 307.7366 -9451.2660 -7658.0150 302.2833 -290.0086 -191.6664 30607.0025 115.0377 178.5239
ENERGY: 1200000 7.7084 18.6184 21.7402 0.0000 -10950.7443 1426.4739 0.0000 0.0000 1808.3154 -7667.8880 305.6207 -9476.2034 -7671.0626 302.0313 -141.9655 -123.4368 30730.7643 102.8263 158.7752
ENERGY: 1500000 11.4941 15.0952 23.1239 0.0000 -10983.9486 1422.9940 0.0000 0.0000 1822.2339 -7689.0076 307.9731 -9511.2415 -7665.1617 302.7330 -113.8424 -38.9826 30256.3633 83.0296 145.5529
TCL: Running FEP window   8: Lambda1 0.35   Lambda2 0.39999999999999997 [dLambda 0.04999999999999999]
TCL: Setting parameter firsttimestep to 0
TCL: Setting parameter alchLambda to 0.35
Info: NONBONDED TABLE R-SQUARED SPACING: 0.0625
Info: NONBONDED TABLE SIZE: 705 POINTS
TCL: Setting parameter alchLambda2 to 0.39999999999999997
Info: NONBONDED TABLE R-SQUARED SPACING: 0.0625
Info: NONBONDED TABLE SIZE: 705 POINTS
TCL: Running for 1500000 steps
ETITLE: TS BOND ANGLE DIHED IMPRP ELECT VDW BOUNDARY MISC KINETIC TOTAL TEMP POTENTIAL TOTALAVG TEMPAVG PRESSURE GPRESSURE VOLUME PRESSAVG GPRESSAVG
ENERGY: 0 11.4941 15.0952 23.1239 0.0000 -10983.9483 1423.3441 0.0000 0.0000 1821.3298 -7689.5613 307.8203 -9510.8911 -7689.5613 307.8203 -133.8743 -29.3735 30256.3633 -133.8743 -29.3735
ENERGY: 300000 5.6917 14.9162 19.4507 0.0000 -10794.7861 1351.1804 0.0000 0.0000 1708.1749 -7695.3723 288.6961 -9403.5472 -7671.2542 301.2289 -739.9342 -635.4295 30957.8387 -64.8476 20.2574
ENERGY: 600000 8.7303 20.4633 18.2438 0.0000 -10956.8847 1520.3835 0.0000 0.0000 1753.3917 -7635.6721 296.3381 -9389.0638 -7682.5319 299.2079 662.7037 727.4076 30421.5378 225.2394 302.5986
ENERGY: 900000 5.4303 18.4312 17.6702 0.0000 -10898.1289 1447.4436 0.0000 0.0000 1719.0598 -7690.0937 290.5358 -9409.1536 -7667.3948 298.6936 230.8961 359.1623 30230.8457 283.6898 360.1724
ENERGY: 1200000 7.5155 20.9951 21.3311 0.0000 -10852.7743 1378.8207 0.0000 0.0000 1753.8536 -7670.2582 296.4162 -9424.1119 -7672.2364 299.3184 -698.5471 -592.7646 31193.5878 199.6611 272.0446
ENERGY: 1500000 6.3893 22.3918 19.2816 0.0000 -10988.4040 1489.9021 0.0000 0.0000 1781.8409 -7668.5983 301.1463 -9450.4392 -7661.5668 300.6557 506.0156 544.3159 30460.6834 175.2609 247.7659
TCL: Running FEP window   9: Lambda1 0.39999999999999997 Lambda2 0.44999999999999996 [dLambda 0.04999999999999999]
TCL: Setting parameter firsttimestep to 0
TCL: Setting parameter alchLambda to 0.39999999999999997
Info: NONBONDED TABLE R-SQUARED SPACING: 0.0625
Info: NONBONDED TABLE SIZE: 705 POINTS
TCL: Setting parameter alchLambda2 to 0.44999999999999996
Info: NONBONDED TABLE R-SQUARED SPACING: 0.0625
Info: NONBONDED TABLE SIZE: 705 POINTS
TCL: Running for 1500000 steps
ETITLE: TS BOND ANGLE DIHED IMPRP ELECT VDW BOUNDARY MISC KINETIC TOTAL TEMP POTENTIAL TOTALAVG TEMPAVG PRESSURE GPRESSURE VOLUME PRESSAVG GPRESSAVG
ENERGY: 0 6.3893 22.3918 19.2816 0.0000 -10988.4024 1489.3094 0.0000 0.0000 1780.9594 -7670.0709 300.9973 -9451.0302 -7670.0709 300.9973 480.4362 553.1244 30460.6834 480.4362 553.1244
ENERGY: 300000 10.5566 25.3950 19.2959 0.0000 -11120.5002 1538.6843 0.0000 0.0000 1760.5291 -7766.0394 297.5444 -9526.5685 -7661.2233 300.2395 664.4705 705.8393 29674.6038 533.0370 585.2641
ENERGY: 600000 4.9757 20.0901 20.8770 0.0000 -10809.5139 1404.8571 0.0000 0.0000 1793.0612 -7565.6527 303.0426 -9358.7139 -7655.1951 300.5991 -289.4085 -206.4219 30899.9995 393.3398 458.4104
ENERGY: 900000 6.2660 20.5412 19.9047 0.0000 -10894.3891 1404.2442 0.0000 0.0000 1762.0187 -7681.4143 297.7962 -9443.4330 -7663.8364 301.0839 -269.1263 -183.6195 30430.9654 260.6335 334.8408
ENERGY: 1200000 5.1192 18.8681 21.6184 0.0000 -11019.1122 1450.9444 0.0000 0.0000 1758.5945 -7763.9675 297.2175 -9522.5620 -7680.7642 300.1138 209.2779 274.0777 29997.5475 255.2097 329.7473
ENERGY: 1500000 6.2050 19.2486 17.5424 0.0000 -10937.8176 1428.9655 0.0000 0.0000 1783.2465 -7682.6096 301.3839 -9465.8561 -7686.8053 299.5768 45.9153 136.3771 30142.8732 181.6002 248.4981
TCL: Running FEP window  10: Lambda1 0.44999999999999996 Lambda2 0.49999999999999994 [dLambda 0.04999999999999999]
TCL: Setting parameter firsttimestep to 0
TCL: Setting parameter alchLambda to 0.44999999999999996
Info: NONBONDED TABLE R-SQUARED SPACING: 0.0625
Info: NONBONDED TABLE SIZE: 705 POINTS
TCL: Setting parameter alchLambda2 to 0.49999999999999994
Info: NONBONDED TABLE R-SQUARED SPACING: 0.0625
Info: NONBONDED TABLE SIZE: 705 POINTS
TCL: Running for 1500000 steps
ETITLE: TS BOND ANGLE DIHED IMPRP ELECT VDW BOUNDARY MISC KINETIC TOTAL TEMP POTENTIAL TOTALAVG TEMPAVG PRESSURE GPRESSURE VOLUME PRESSAVG GPRESSAVG
ENERGY: 0 6.2050 19.2486 17.5424 0.0000 -10937.8187 1428.5900 0.0000 0.0000 1782.3343 -7683.8984 301.2297 -9466.2327 -7683.8984 301.2297 59.8509 143.8272 30142.8732 59.8509 143.8272
ENERGY: 300000 7.7446 18.7612 18.2338 0.0000 -10976.9690 1466.4343 0.0000 0.0000 1796.0675 -7669.7274 303.5507 -9465.7949 -7661.6786 301.4628 -28.2531 95.0879 30719.2827 -144.7637 -85.5141
ENERGY: 600000 9.0239 21.6580 17.7015 0.0000 -10873.3940 1406.0346 0.0000 0.0000 1763.2167 -7655.7594 297.9987 -9418.9761 -7671.3046 300.5129 -290.7862 -132.7406 30877.3810 -120.3890 -52.2491
ENERGY: 900000 4.4492 16.2615 18.9522 0.0000 -10891.2721 1400.6579 0.0000 0.0000 1724.1120 -7726.8394 291.3896 -9450.9514 -7667.1713 299.7273 -385.0816 -294.0513 30171.4822 -41.4884 23.7336
ENERGY: 1200000 3.3637 21.8435 19.0800 0.0000 -10899.5426 1402.2270 0.0000 0.0000 1795.5454 -7657.4830 303.4625 -9453.0284 -7675.1589 299.8028 -258.7681 -104.5542 30012.5246 -117.3012 -31.5799
ENERGY: 1500000 7.1023 19.8179 18.8092 0.0000 -10836.4165 1404.6725 0.0000 0.0000 1772.6636 -7613.3510 299.5953 -9386.0146 -7666.7544 299.8489 -294.9610 -297.3439 30909.4275 -100.0072 -21.1824
TCL: Running FEP window  11: Lambda1 0.49999999999999994 Lambda2 0.5499999999999999 [dLambda 0.04999999999999999]
TCL: Setting parameter firsttimestep to 0
TCL: Setting parameter alchLambda to 0.49999999999999994
Info: NONBONDED TABLE R-SQUARED SPACING: 0.0625
Info: NONBONDED TABLE SIZE: 705 POINTS
TCL: Setting parameter alchLambda2 to 0.5499999999999999
Info: NONBONDED TABLE R-SQUARED SPACING: 0.0625
Info: NONBONDED TABLE SIZE: 705 POINTS
TCL: Running for 1500000 steps
ETITLE: TS BOND ANGLE DIHED IMPRP ELECT VDW BOUNDARY MISC KINETIC TOTAL TEMP POTENTIAL TOTALAVG TEMPAVG PRESSURE GPRESSURE VOLUME PRESSAVG GPRESSAVG
ENERGY: 0 7.1023 19.8179 18.8092 0.0000 -10836.4158 1404.7214 0.0000 0.0000 1771.7837 -7614.1813 299.4466 -9385.9650 -7614.1813 299.4466 -353.9580 -279.5101 30909.4275 -353.9580 -279.5101
ENERGY: 300000 4.4636 30.0563 17.1571 0.0000 -10826.1759 1349.2364 0.0000 0.0000 1795.5230 -7629.7396 303.4587 -9425.2626 -7628.4412 301.0946 -454.9742 -413.7850 30545.3043 -275.2160 -217.5728
ENERGY: 600000 4.4230 21.1283 24.1627 0.0000 -10900.6102 1481.9906 0.0000 0.0000 1786.6040 -7582.3016 301.9513 -9368.9056 -7624.9631 300.6369 281.6688 378.0623 30737.6400 -166.5221 -100.6890
ENERGY: 900000 6.2879 19.1896 23.9814 0.0000 -10881.7290 1371.9231 0.0000 0.0000 1737.9725 -7722.3744 293.7322 -9460.3469 -7653.9455 297.9100 -438.2640 -452.6686 30417.6419 -195.3098 -143.5100
ENERGY: 1200000 9.6028 23.0717 17.8313 0.0000 -10925.7119 1415.0492 0.0000 0.0000 1733.6023 -7726.5546 292.9936 -9460.1569 -7665.7523 298.8621 -258.1714 -218.9452 30557.2605 -104.6749 -52.3112
ENERGY: 1500000 8.8738 17.1344 18.8084 0.0000 -11071.0696 1589.7921 0.0000 0.0000 1706.7438 -7729.7171 288.4543 -9436.4610 -7674.2607 298.3034 1223.9998 1317.7965 30345.2180 -23.3677 32.1318
TCL: Running FEP window  12: Lambda1 0.5499999999999999 Lambda2 0.6    [dLambda 0.050000000000000044]
TCL: Setting parameter firsttimestep to 0
TCL: Setting parameter alchLambda to 0.5499999999999999
Info: NONBONDED TABLE R-SQUARED SPACING: 0.0625
Info: NONBONDED TABLE SIZE: 705 POINTS
TCL: Setting parameter alchLambda2 to 0.6
Info: NONBONDED TABLE R-SQUARED SPACING: 0.0625
Info: NONBONDED TABLE SIZE: 705 POINTS
TCL: Running for 1500000 steps
ETITLE: TS BOND ANGLE DIHED IMPRP ELECT VDW BOUNDARY MISC KINETIC TOTAL TEMP POTENTIAL TOTALAVG TEMPAVG PRESSURE GPRESSURE VOLUME PRESSAVG GPRESSAVG
ENERGY: 0 8.8738 17.1344 18.8084 0.0000 -11071.1373 1589.7568 0.0000 0.0000 1705.8445 -7730.7194 288.3023 -9436.5639 -7730.7194 288.3023 1266.0345 1331.2196 30345.2180 1266.0345 1331.2196
ENERGY: 300000 9.6859 19.5982 19.5214 0.0000 -11023.1644 1443.2465 0.0000 0.0000 1757.1495 -7773.9628 296.9733 -9531.1124 -7699.6816 297.9651 -318.0873 -232.4579 30394.7179 153.8989 226.8189
ENERGY: 600000 5.6388 21.3351 20.9037 0.0000 -10899.5657 1432.0626 0.0000 0.0000 1793.0863 -7626.5392 303.0469 -9419.6254 -7696.6691 298.4556 491.8615 542.6465 30087.9396 281.3322 338.5117
ENERGY: 900000 5.0532 23.2439 22.1642 0.0000 -11037.3822 1503.5055 0.0000 0.0000 1753.4469 -7729.9685 296.3475 -9483.4154 -7704.4257 298.1494 496.0897 550.6955 30272.5599 225.8941 284.3636
ENERGY: 1200000 8.2035 20.8235 19.2946 0.0000 -11073.2333 1460.6435 0.0000 0.0000 1825.6418 -7738.6264 308.5490 -9564.2682 -7703.1538 299.7627 100.4263 191.8757 30221.0006 205.9596 263.4011
ENERGY: 1500000 6.5267 18.7518 27.7393 0.0000 -10861.9975 1408.0469 0.0000 0.0000 1829.4137 -7571.5190 309.1865 -9400.9327 -7688.0461 301.1680 22.0574 64.3878 30606.4908 159.2958 210.8487
TCL: Running FEP window  13: Lambda1 0.6    Lambda2 0.65   [dLambda 0.050000000000000044]
TCL: Setting parameter firsttimestep to 0
TCL: Setting parameter alchLambda to 0.6
Info: NONBONDED TABLE R-SQUARED SPACING: 0.0625
Info: NONBONDED TABLE SIZE: 705 POINTS
TCL: Setting parameter alchLambda2 to 0.65
Info: NONBONDED TABLE R-SQUARED SPACING: 0.0625
Info: NONBONDED TABLE SIZE: 705 POINTS
TCL: Running for 1500000 steps
ETITLE: TS BOND ANGLE DIHED IMPRP ELECT VDW BOUNDARY MISC KINETIC TOTAL TEMP POTENTIAL TOTALAVG TEMPAVG PRESSURE GPRESSURE VOLUME PRESSAVG GPRESSAVG
ENERGY: 0 6.5268 18.7518 27.7393 0.0000 -10863.9045 1409.3946 0.0000 0.0000 1828.4921 -7572.9998 309.0308 -9401.4920 -7572.9998 309.0308 18.0092 96.1076 30606.4908 18.0092 96.1076
ENERGY: 300000 5.9386 17.4666 19.0392 0.0000 -11090.1482 1472.2008 0.0000 0.0000 1778.7191 -7796.7839 300.6187 -9575.5030 -7674.3886 302.0220 115.6102 167.7942 29712.1218 -83.3963 -24.6588
ENERGY: 600000 4.2129 24.0454 18.4183 0.0000 -10933.8256 1447.4057 0.0000 0.0000 1775.5206 -7664.2229 300.0781 -9439.7434 -7665.9121 302.6061 -296.9795 -240.4359 30940.0891 37.9970 104.6414
ENERGY: 900000 7.5447 17.3695 22.4545 0.0000 -11007.7524 1496.0762 0.0000 0.0000 1777.7119 -7686.5957 300.4485 -9464.3076 -7668.0514 302.3695 263.1211 353.7184 30297.3368 134.9617 201.3376
ENERGY: 1200000 7.4779 20.6959 19.0518 0.0000 -10894.8834 1361.6758 0.0000 0.0000 1731.5726 -7754.4095 292.6505 -9485.9820 -7674.9865 301.5061 -761.0596 -670.9532 30593.8472 87.1140 148.1036
ENERGY: 1500000 9.1561 15.4897 27.5220 0.0000 -10971.5168 1426.5499 0.0000 0.0000 1715.2165 -7777.5826 289.8862 -9492.7991 -7684.4394 300.1670 -191.3488 -90.2488 30492.5965 71.8192 134.1487
TCL: Running FEP window  14: Lambda1 0.65   Lambda2 0.7000000000000001 [dLambda 0.050000000000000044]
TCL: Setting parameter firsttimestep to 0
TCL: Setting parameter alchLambda to 0.65
Info: NONBONDED TABLE R-SQUARED SPACING: 0.0625
Info: NONBONDED TABLE SIZE: 705 POINTS
TCL: Setting parameter alchLambda2 to 0.7000000000000001
Info: NONBONDED TABLE R-SQUARED SPACING: 0.0625
Info: NONBONDED TABLE SIZE: 705 POINTS
TCL: Running for 1500000 steps
ETITLE: TS BOND ANGLE DIHED IMPRP ELECT VDW BOUNDARY MISC KINETIC TOTAL TEMP POTENTIAL TOTALAVG TEMPAVG PRESSURE GPRESSURE VOLUME PRESSAVG GPRESSAVG
ENERGY: 0 9.1561 15.4897 27.5220 0.0000 -10972.2664 1426.5493 0.0000 0.0000 1714.3629 -7779.1864 289.7419 -9493.5493 -7779.1864 289.7419 -144.9156 -69.6114 30492.5965 -144.9156 -69.6114
ENERGY: 300000 6.5678 16.8025 18.5961 0.0000 -10922.5944 1444.8102 0.0000 0.0000 1800.6905 -7635.1272 304.3321 -9435.8178 -7681.0793 297.7975 205.1235 266.2906 30269.3964 -109.6635 -46.4759
ENERGY: 600000 6.7007 23.9642 21.6571 0.0000 -10944.9011 1475.9985 0.0000 0.0000 1813.1936 -7603.3869 306.4452 -9416.5805 -7664.3820 300.5185 582.9528 695.1436 30344.4650 102.7100 173.6154
ENERGY: 900000 6.0246 17.7126 21.6652 0.0000 -11047.4461 1502.4511 0.0000 0.0000 1777.9919 -7721.6008 300.4958 -9499.5926 -7681.7310 300.4274 607.9738 612.1188 30183.6623 162.7388 235.4309
ENERGY: 1200000 4.1108 17.2278 25.4265 0.0000 -10939.9085 1445.9561 0.0000 0.0000 1761.5806 -7685.6068 297.7221 -9447.1874 -7682.5871 300.5078 58.3887 123.4018 30595.2652 131.5119 203.7679
ENERGY: 1500000 5.9451 21.3336 25.1617 0.0000 -10935.3112 1389.6617 0.0000 0.0000 1812.7104 -7680.4988 306.3635 -9493.2092 -7677.8859 301.0083 -252.5529 -226.3407 29952.4672 37.7326 100.7148
TCL: Running FEP window  15: Lambda1 0.7000000000000001 Lambda2 0.7500000000000001 [dLambda 0.050000000000000044]
TCL: Setting parameter firsttimestep to 0
TCL: Setting parameter alchLambda to 0.7000000000000001
Info: NONBONDED TABLE R-SQUARED SPACING: 0.0625
Info: NONBONDED TABLE SIZE: 705 POINTS
TCL: Setting parameter alchLambda2 to 0.7500000000000001
Info: NONBONDED TABLE R-SQUARED SPACING: 0.0625
Info: NONBONDED TABLE SIZE: 705 POINTS
TCL: Running for 1500000 steps
ETITLE: TS BOND ANGLE DIHED IMPRP ELECT VDW BOUNDARY MISC KINETIC TOTAL TEMP POTENTIAL TOTALAVG TEMPAVG PRESSURE GPRESSURE VOLUME PRESSAVG GPRESSAVG
ENERGY: 0 5.9451 21.3336 25.1617 0.0000 -10937.0639 1390.1256 0.0000 0.0000 1811.8429 -7682.6550 306.2169 -9494.4979 -7682.6550 306.2169 -282.3447 -205.8195 29952.4672 -282.3447 -205.8195
ENERGY: 300000 5.1692 28.9675 21.0938 0.0000 -10810.2429 1398.5872 0.0000 0.0000 1741.9154 -7614.5098 294.3986 -9356.4252 -7619.0813 302.0906 -128.6635 -78.4237 30972.4094 12.5219 93.1699
ENERGY: 600000 4.1979 21.4492 16.4091 0.0000 -10864.7489 1432.9684 0.0000 0.0000 1742.1809 -7647.5434 294.4434 -9389.7243 -7647.2012 300.7566 141.2576 229.9015 30746.4247 285.0746 371.6165
ENERGY: 900000 6.8942 18.9771 28.7474 0.0000 -11011.3169 1493.1525 0.0000 0.0000 1808.2899 -7655.2559 305.6164 -9463.5457 -7657.8271 301.3082 320.8121 427.0288 30373.2481 322.9929 408.4738
ENERGY: 1200000 6.5103 15.0696 23.7746 0.0000 -10979.1912 1459.8406 0.0000 0.0000 1807.7439 -7666.2523 305.5241 -9473.9962 -7653.1182 302.4330 81.4016 214.5387 30418.0875 261.9282 348.8372
ENERGY: 1500000 4.5522 19.6149 21.8297 0.0000 -10823.0068 1411.3237 0.0000 0.0000 1832.5474 -7533.1389 309.7161 -9365.6863 -7643.9987 302.9980 141.2113 178.7692 30846.3252 351.3701 435.7217
TCL: Running FEP window  16: Lambda1 0.7500000000000001 Lambda2 0.8000000000000002 [dLambda 0.050000000000000044]
TCL: Setting parameter firsttimestep to 0
TCL: Setting parameter alchLambda to 0.7500000000000001
Info: NONBONDED TABLE R-SQUARED SPACING: 0.0625
Info: NONBONDED TABLE SIZE: 705 POINTS
TCL: Setting parameter alchLambda2 to 0.8000000000000002
Info: NONBONDED TABLE R-SQUARED SPACING: 0.0625
Info: NONBONDED TABLE SIZE: 705 POINTS
TCL: Running for 1500000 steps
ETITLE: TS BOND ANGLE DIHED IMPRP ELECT VDW BOUNDARY MISC KINETIC TOTAL TEMP POTENTIAL TOTALAVG TEMPAVG PRESSURE GPRESSURE VOLUME PRESSAVG GPRESSAVG
ENERGY: 0 4.5522 19.6149 21.8297 0.0000 -10823.5745 1411.2227 0.0000 0.0000 1831.6189 -7534.7361 309.5592 -9366.3550 -7534.7361 309.5592 117.5437 195.7340 30846.3252 117.5437 195.7340
ENERGY: 300000 8.1379 22.1337 21.4774 0.0000 -10799.7125 1331.8018 0.0000 0.0000 1743.8950 -7672.2668 294.7331 -9416.1617 -7644.1699 300.7261 -674.1815 -659.1782 30424.0334 -232.3273 -168.4618
ENERGY: 600000 12.7424 16.8964 22.4179 0.0000 -10957.8706 1435.0509 0.0000 0.0000 1842.9407 -7627.8224 311.4727 -9470.7630 -7644.1399 302.7929 -182.9534 -64.2115 30891.2011 -106.2289 -30.5827
ENERGY: 900000 6.1700 16.8139 18.7859 0.0000 -10817.6674 1370.0861 0.0000 0.0000 1790.3564 -7615.4551 302.5855 -9405.8115 -7644.8098 303.5103 -290.8038 -253.0127 30456.2778 -114.9477 -58.3462
ENERGY: 1200000 8.2424 18.8896 18.3628 0.0000 -11031.1392 1483.0922 0.0000 0.0000 1795.1514 -7707.4008 303.3959 -9502.5522 -7664.1363 303.1185 254.7854 312.0271 30700.3788 -62.5294 -3.1960
ENERGY: 1500000 9.3506 21.4631 17.5543 0.0000 -10956.3109 1435.2658 0.0000 0.0000 1736.1962 -7736.4809 293.4320 -9472.6771 -7672.2317 302.0313 -45.4185 23.3291 30344.5904 -110.1548 -52.1951
TCL: Running FEP window  17: Lambda1 0.8000000000000002 Lambda2 0.8500000000000002 [dLambda 0.050000000000000044]
TCL: Setting parameter firsttimestep to 0
TCL: Setting parameter alchLambda to 0.8000000000000002
Info: NONBONDED TABLE R-SQUARED SPACING: 0.0625
Info: NONBONDED TABLE SIZE: 705 POINTS
TCL: Setting parameter alchLambda2 to 0.8500000000000002
Info: NONBONDED TABLE R-SQUARED SPACING: 0.0625
Info: NONBONDED TABLE SIZE: 705 POINTS
TCL: Running for 1500000 steps
ETITLE: TS BOND ANGLE DIHED IMPRP ELECT VDW BOUNDARY MISC KINETIC TOTAL TEMP POTENTIAL TOTALAVG TEMPAVG PRESSURE GPRESSURE VOLUME PRESSAVG GPRESSAVG
ENERGY: 0 9.3506 21.4631 17.5543 0.0000 -10958.8830 1436.0394 0.0000 0.0000 1735.3635 -7739.1120 293.2912 -9474.4755 -7739.1120 293.2912 -40.7029 49.2552 30344.5904 -40.7029 49.2552
ENERGY: 300000 9.4328 14.9217 22.3413 0.0000 -10926.5014 1387.1862 0.0000 0.0000 1808.2539 -7684.3654 305.6103 -9492.6193 -7707.9447 299.2572 -207.6888 -108.3447 30296.7762 27.0221 120.3736
ENERGY: 600000 3.9874 18.3920 16.5301 0.0000 -10915.0001 1378.4043 0.0000 0.0000 1801.9551 -7695.7312 304.5458 -9497.6863 -7690.2728 300.6445 -275.9874 -250.0269 30190.1328 -130.0982 -53.8700
ENERGY: 900000 4.2223 19.5228 19.8561 0.0000 -10869.4775 1322.0440 0.0000 0.0000 1771.7094 -7732.1230 299.4340 -9503.8324 -7692.1966 301.8036 -854.2845 -764.6483 30235.8134 -165.6502 -90.0259
ENERGY: 1200000 2.3298 21.0144 19.9953 0.0000 -10849.6549 1401.3508 0.0000 0.0000 1795.4898 -7609.4747 303.4531 -9404.9645 -7688.4327 301.3535 -238.6552 -157.3497 30796.5753 -83.6518 -13.6599
ENERGY: 1500000 4.2231 20.7680 20.0302 0.0000 -10919.5940 1453.6177 0.0000 0.0000 1758.0384 -7662.9165 297.1235 -9420.9549 -7684.8722 300.9672 217.5471 277.4348 30587.6640 -44.7734 25.1138
TCL: Running FEP window  18: Lambda1 0.8500000000000002 Lambda2 0.9000000000000002 [dLambda 0.050000000000000044]
TCL: Setting parameter firsttimestep to 0
TCL: Setting parameter alchLambda to 0.8500000000000002
Info: NONBONDED TABLE R-SQUARED SPACING: 0.0625
Info: NONBONDED TABLE SIZE: 705 POINTS
TCL: Setting parameter alchLambda2 to 0.9000000000000002
Info: NONBONDED TABLE R-SQUARED SPACING: 0.0625
Info: NONBONDED TABLE SIZE: 705 POINTS
TCL: Running for 1500000 steps
ETITLE: TS BOND ANGLE DIHED IMPRP ELECT VDW BOUNDARY MISC KINETIC TOTAL TEMP POTENTIAL TOTALAVG TEMPAVG PRESSURE GPRESSURE VOLUME PRESSAVG GPRESSAVG
ENERGY: 0 4.2231 20.7680 20.0302 0.0000 -10922.9354 1456.2043 0.0000 0.0000 1757.1681 -7664.5418 296.9764 -9421.7099 -7664.5418 296.9764 219.8502 322.1092 30587.6640 219.8502 322.1092
ENERGY: 300000 7.7859 18.4930 22.4858 0.0000 -10935.8044 1431.6015 0.0000 0.0000 1717.9050 -7737.5333 290.3406 -9455.4383 -7713.5066 292.4291 -114.4858 -35.6997 30436.6987 86.8389 186.7439
ENERGY: 600000 6.3789 23.1131 17.6330 0.0000 -10987.1812 1501.5686 0.0000 0.0000 1745.8871 -7692.6005 295.0698 -9438.4876 -7703.6395 293.5092 519.0452 582.0621 30898.4700 -7.2352 88.6122
ENERGY: 900000 3.6872 14.6356 22.9124 0.0000 -10841.2965 1362.0158 0.0000 0.0000 1737.3834 -7700.6620 293.6326 -9438.0454 -7698.4460 294.8291 -619.6912 -598.7741 30866.1481 -144.7728 -58.1060
ENERGY: 1200000 6.5721 24.1120 21.6825 0.0000 -11113.7145 1505.9307 0.0000 0.0000 1806.7499 -7748.6673 305.3561 -9555.4172 -7685.5045 297.0417 208.6193 288.0306 30656.7498 -143.3047 -56.4656
ENERGY: 1500000 8.6283 18.4468 25.7300 0.0000 -10956.1777 1433.9212 0.0000 0.0000 1798.3583 -7671.0931 303.9379 -9469.4514 -7680.0331 298.8010 -41.3517 6.3517 30688.6367 -71.6935 17.2028
TCL: Running FEP window  19: Lambda1 0.9000000000000002 Lambda2 0.9500000000000003 [dLambda 0.050000000000000044]
TCL: Setting parameter firsttimestep to 0
TCL: Setting parameter alchLambda to 0.9000000000000002
Info: NONBONDED TABLE R-SQUARED SPACING: 0.0625
Info: NONBONDED TABLE SIZE: 705 POINTS
TCL: Setting parameter alchLambda2 to 0.9500000000000003
Info: NONBONDED TABLE R-SQUARED SPACING: 0.0625
Info: NONBONDED TABLE SIZE: 705 POINTS
TCL: Running for 1500000 steps
ETITLE: TS BOND ANGLE DIHED IMPRP ELECT VDW BOUNDARY MISC KINETIC TOTAL TEMP POTENTIAL TOTALAVG TEMPAVG PRESSURE GPRESSURE VOLUME PRESSAVG GPRESSAVG
ENERGY: 0 8.6283 18.4468 25.7300 0.0000 -10960.0166 1436.6472 0.0000 0.0000 1797.4648 -7673.0994 303.7869 -9470.5642 -7673.0994 303.7869 -23.6511 49.2983 30688.6367 -23.6511 49.2983
ENERGY: 300000 5.8284 21.7643 14.9365 0.0000 -10939.8685 1403.6643 0.0000 0.0000 1810.9243 -7682.7505 306.0617 -9493.6749 -7659.2799 303.9321 78.4518 131.4579 30303.9233 195.6019 248.7431
ENERGY: 600000 5.6669 14.9315 20.3594 0.0000 -11108.3221 1543.6360 0.0000 0.0000 1787.0170 -7736.7112 302.0211 -9523.7283 -7702.6199 302.4468 710.5141 819.8817 30544.3731 126.8021 195.3618
ENERGY: 900000 5.2566 22.2626 22.2093 0.0000 -11041.8917 1470.1172 0.0000 0.0000 1772.1140 -7749.9320 299.5024 -9522.0460 -7706.5906 302.6302 231.8904 348.5089 30751.2773 113.9016 181.2375
ENERGY: 1200000 10.9167 23.5881 20.7224 0.0000 -10962.5857 1441.7845 0.0000 0.0000 1755.7583 -7709.8155 296.7381 -9465.5738 -7700.5027 301.3940 170.7108 220.2514 30681.1195 81.1774 142.7554
ENERGY: 1500000 9.6658 12.8090 18.3113 0.0000 -10817.6099 1346.4946 0.0000 0.0000 1773.1019 -7657.2274 299.6693 -9430.3293 -7696.7850 301.2186 -422.1666 -369.4428 30702.8823 31.9128 92.7001
TCL: Running FEP window  20: Lambda1 0.9500000000000003 Lambda2 1.0    [dLambda 0.04999999999999971]
TCL: Setting parameter firsttimestep to 0
TCL: Setting parameter alchLambda to 0.9500000000000003
Info: NONBONDED TABLE R-SQUARED SPACING: 0.0625
Info: NONBONDED TABLE SIZE: 705 POINTS
TCL: Setting parameter alchLambda2 to 1.0
Info: NONBONDED TABLE R-SQUARED SPACING: 0.0625
Info: NONBONDED TABLE SIZE: 705 POINTS
TCL: Running for 1500000 steps
ETITLE: TS BOND ANGLE DIHED IMPRP ELECT VDW BOUNDARY MISC KINETIC TOTAL TEMP POTENTIAL TOTALAVG TEMPAVG PRESSURE GPRESSURE VOLUME PRESSAVG GPRESSAVG
ENERGY: 0 9.6658 12.8090 18.3113 0.0000 -10821.2322 1349.2838 0.0000 0.0000 1772.2253 -7658.9371 299.5212 -9431.1625 -7658.9371 299.5212 -392.9394 -313.9764 30702.8823 -392.9394 -313.9764
ENERGY: 300000 9.1791 13.9861 19.2321 0.0000 -11016.7994 1490.6738 0.0000 0.0000 1844.0166 -7639.7116 311.6545 -9483.7282 -7678.7807 302.6522 516.1822 601.6684 30815.3909 -30.7911 24.5381
ENERGY: 600000 6.4727 15.6719 18.6044 0.0000 -10818.1198 1362.1867 0.0000 0.0000 1797.8596 -7617.3246 303.8536 -9415.1841 -7676.3027 302.1487 -695.3757 -498.7665 31017.2021 -106.4134 -28.2186
ENERGY: 900000 5.0697 25.6925 18.8494 0.0000 -10982.7468 1435.2723 0.0000 0.0000 1784.1771 -7713.6857 301.5412 -9497.8628 -7693.3712 301.5241 -63.2497 42.9101 30547.8686 -176.6504 -94.4095
ENERGY: 1200000 8.2316 12.6574 24.0989 0.0000 -10919.6209 1469.5853 0.0000 0.0000 1772.6253 -7632.4224 299.5888 -9405.0477 -7693.4307 300.6230 402.3556 450.2741 30534.2188 -114.2611 -41.0796
ENERGY: 1500000 11.6627 22.7483 17.9261 0.0000 -10980.0155 1428.1007 0.0000 0.0000 1748.7332 -7750.8446 295.5508 -9499.5778 -7690.9660 301.2998 -141.2108 -31.5040 30539.6436 -75.4471 -3.4876
TCL: Exiting due to exit command.
