Info: SIMULATION PARAMETERS:
Info: TIMESTEP               2
Info: NUMBER OF STEPS        0
Info: STEPS PER CYCLE        10
Info: PERIODIC CELL BASIS 1  29.2616 0 0
Info: PERIODIC CELL BASIS 2  0 33.2613 0
Info: PERIODIC CELL BASIS 3  0 0 31.437
Info: PERIODIC CELL CENTER   0 0 0
Info: WRAPPING WATERS AROUND PERIODIC BOUNDARIES ON OUTPUT.
Info: WRAPPING ALL CLUSTERS AROUND PERIODIC BOUNDARIES ON OUTPUT.
Info: FIRST LDB TIMESTEP     50
Info: LAST LDB TIMESTEP     -1
Info: HOM BACKGROUND SCALING 1
Info: PME BACKGROUND SCALING 1
Info: MIN ATOMS PER PATCH    40
Info: EMPTY PATCH LOAD       40 ATOMS
Info: VELOCITY FILE          mobley_3525176_equil.vel
Info: CENTER OF MASS MOVING INITIALLY? NO
Info: DIELECTRIC             1
Info: EXCLUDE                SCALED ONE-FOUR
Info: 1-4 ELECTROSTATICS SCALED BY 0.833333
Info: MODIFIED 1-4 VDW PARAMETERS WILL BE USED
Info: DCD FILENAME           mobley_3525176_prod.dcd
Info: DCD FREQUENCY          100000
Info: DCD FIRST STEP         100000
Info: DCD FILE WILL CONTAIN UNIT CELL DATA
Info: XST FILENAME           mobley_3525176_prod.xst
Info: XST FREQUENCY          100000
Info: NO VELOCITY DCD OUTPUT
Info: NO FORCE DCD OUTPUT
Info: OUTPUT FILENAME        mobley_3525176_prod
Info: BINARY OUTPUT FILES WILL BE USED
Info: RESTART FILENAME       mobley_3525176_prod.restart
Info: RESTART FREQUENCY      100000
Info: BINARY RESTART FILES WILL BE USED
Info: CUTOFF                 9
Info: PAIRLIST DISTANCE      11
Info: PAIRLIST SHRINK RATE   0.01
Info: PAIRLIST GROW RATE     0.01
Info: PAIRLIST TRIGGER       0.3
Info: PAIRLISTS PER CYCLE    2
Info: PAIRLISTS ENABLED
Info: MARGIN                 2
Info: HYDROGEN GROUP CUTOFF  2.5
Info: PATCH DIMENSION        15.5
Info: ENERGY OUTPUT STEPS    100000
Info: ENERGY EVALUATION STEPS    100000
Info: OUTPUT ENERGY PRECISION 4
Info: CROSSTERM ENERGY INCLUDED IN DIHEDRAL
Info: TIMING OUTPUT STEPS    1000000
Info: PRESSURE OUTPUT STEPS  100000
Info: ALCHEMICAL FEP ON
Info: FEP CURRENT LAMBDA VALUE     1
Info: FEP COMPARISON LAMBDA VALUE  0.95
Info: FEP INTRA-ALCHEMICAL NON-BONDED INTERACTIONS WILL BE RETAINED
Info: FEP INTRA-ALCHEMICAL BONDED INTERACTIONS WILL BE RETAINED
Info: FEP VDW SHIFTING COEFFICIENT 5
Info: FEP ELEC. ACTIVE FOR ANNIHILATED PARTICLES BETWEEN LAMBDA = 0 AND LAMBDA = 0.5
Info: FEP ELEC. ACTIVE FOR EXNIHILATED PARTICLES BETWEEN LAMBDA = 0.5 AND LAMBDA = 1
Info: FEP VDW ACTIVE FOR ANNIHILATED PARTICLES BETWEEN LAMBDA = 0 AND LAMBDA = 1
Info: FEP VDW ACTIVE FOR EXNIHILATED PARTICLES BETWEEN LAMBDA = 0 AND LAMBDA = 1
Info: FEP BOND ACTIVE FOR ANNIHILATED PARTICLES BETWEEN LAMBDA = 1 AND LAMBDA = 1
Info: FEP BOND ACTIVE FOR EXNIHILATED PARTICLES BETWEEN LAMBDA = 0 AND LAMBDA = 0
Info: LANGEVIN DYNAMICS ACTIVE
Info: LANGEVIN TEMPERATURE   300
Info: LANGEVIN USING BBK INTEGRATOR
Info: LANGEVIN DAMPING COEFFICIENT IS 1 INVERSE PS
Info: LANGEVIN DYNAMICS APPLIED TO HYDROGENS
Info: LANGEVIN PISTON PRESSURE CONTROL ACTIVE
Info:        TARGET PRESSURE IS 1.01325 BAR
Info:     OSCILLATION PERIOD IS 50 FS
Info:             DECAY TIME IS 25 FS
Info:     PISTON TEMPERATURE IS 300 K
Info:       PRESSURE CONTROL IS GROUP-BASED
Info:    INITIAL STRAIN RATE IS 8.47319e-06 8.47319e-06 8.47319e-06
Info:       CELL FLUCTUATION IS ISOTROPIC
Info: PARTICLE MESH EWALD (PME) ACTIVE
Info: PME TOLERANCE               1e-06
Info: PME EWALD COEFFICIENT       0.348832
Info: PME INTERPOLATION ORDER     4
Info: PME GRID DIMENSIONS         32 36 32
Info: PME MAXIMUM GRID SPACING    1
Info: PME CALCULATION WILL BE PERFORMED ON GPU
Info: FULL ELECTROSTATIC EVALUATION FREQUENCY      2
Info: USING VERLET I (r-RESPA) MTS SCHEME.
Info: C1 SPLITTING OF LONG RANGE ELECTROSTATICS
Info: PLACING ATOMS IN PATCHES BY HYDROGEN GROUPS
Info: RIGID BONDS TO HYDROGEN : ALL
Info:         ERROR TOLERANCE : 1e-08
Info:          MAX ITERATIONS : 100
Info: RIGID WATER USING SETTLE ALGORITHM
Info: RANDOM NUMBER SEED     1743988373
Info: USE HYDROGEN BONDS?    NO
Info: Using AMBER format force field!
Info: AMBER PARM FILE        mobley_3525176.prmtop
Info: COORDINATE PDB         mobley_3525176.pdb
Info: Exclusions will be read from PARM file!
Info: SCNB (VDW SCALING)     2
Info: USING ARITHMETIC MEAN TO COMBINE L-J SIGMA PARAMETERS
Info: BINARY COORDINATES     mobley_3525176_equil.coor
Info: SUMMARY OF PARAMETERS:
Info: 7 BONDS
Info: 8 ANGLES
Info:   8 HARMONIC
Info:   0 COSINE-BASED
Info: 9 DIHEDRAL
Info: 0 IMPROPER
Info: 0 CROSSTERM
Info: 0 VDW
Info: 21 VDW_PAIRS
Info: 0 NBTHOLE_PAIRS
Info: To read alchdata from file: mobley_3525176.pdb
Info: To read alchflag data from column: 5
Info: STRUCTURE SUMMARY:
Info: 2970 ATOMS
Info: 2970 BONDS
Info: 48 ANGLES
Info: 76 DIHEDRALS
Info: 0 IMPROPERS
Info: 0 CROSSTERMS
Info: 3081 EXCLUSIONS
Info: 2959 RIGID BONDS
Info: ALCH: 0 ATOMS TO DISAPPEAR IN FINAL STATE
Info: ALCH: 27 ATOMS TO APPEAR IN FINAL STATE
Info: 5951 DEGREES OF FREEDOM
Info: 992 HYDROGEN GROUPS
Info: 4 ATOMS IN LARGEST HYDROGEN GROUP
Info: 992 MIGRATION GROUPS
Info: 4 ATOMS IN LARGEST MIGRATION GROUP
Info: TOTAL MASS = 17821.9 amu
Info: TOTAL CHARGE = 2.6077e-08 e
Info: MASS DENSITY = 0.96724 g/cm^3
Info: ATOM DENSITY = 0.0970681 atoms/A^3
Info: ADDED 0 IMPLICIT EXCLUSIONS
Info: NONBONDED TABLE R-SQUARED SPACING: 0.0625
Info: NONBONDED TABLE SIZE: 705 POINTS
Info: REMOVING COM VELOCITY 0.0615851 -0.0959988 -0.0731594
Info: Use 3D box decompostion in PME FFT.
Info: Updated CUDA force table with 4096 elements.
Info: Updated CUDA LJ table with 6 x 6 elements.
Info: Found 26 unique exclusion lists needing 100 bytes
TCL: Running for 1500000 steps
ETITLE: TS BOND ANGLE DIHED IMPRP ELECT VDW BOUNDARY MISC KINETIC TOTAL TEMP POTENTIAL TOTALAVG TEMPAVG PRESSURE GPRESSURE VOLUME PRESSAVG GPRESSAVG
ENERGY: 0 4.2173 8.9550 4.2430 0.0000 -10808.8224 1472.3536 0.0000 0.0000 1779.2293 -7539.8242 300.9070 -9319.0535 -7539.8242 300.9070 43.0942 132.2354 30597.0765 43.0942 132.2354
ENERGY: 300000 6.7881 10.3886 6.8827 0.0000 -10688.9538 1453.1888 0.0000 0.0000 1806.9379 -7404.7677 305.5932 -9211.7056 -7485.6135 298.5844 142.4548 225.9017 30757.8768 15.1170 91.7728
ENERGY: 600000 8.3402 7.7912 5.8346 0.0000 -10571.2026 1300.9271 0.0000 0.0000 1694.6243 -7553.6852 286.5985 -9248.3096 -7463.5363 300.5534 -1381.2618 -1339.1861 31284.7847 -0.5896 54.4773
ENERGY: 900000 2.1776 9.0428 6.1299 0.0000 -10869.7673 1567.0734 0.0000 0.0000 1801.7600 -7483.5837 304.7175 -9285.3437 -7462.7849 302.2600 1295.7279 1298.5497 30297.5157 131.1313 182.1382
ENERGY: 1200000 3.6329 7.9774 6.3999 0.0000 -10725.4470 1471.4733 0.0000 0.0000 1824.2420 -7411.7215 308.5197 -9235.9635 -7463.2555 302.9147 340.3709 433.2020 30919.7856 56.2811 111.8841
ENERGY: 1500000 3.4577 13.5723 7.6900 0.0000 -10834.4557 1508.8770 0.0000 0.0000 1825.8921 -7474.9667 308.7988 -9300.8588 -7473.2957 302.5703 328.3941 427.3368 30630.8922 36.6757 93.1015
TCL: Running FEP window   2: Lambda1 0.95   Lambda2 0.8999999999999999 [dLambda -0.050000000000000044]
TCL: Setting parameter firsttimestep to 0
TCL: Setting parameter alchLambda to 0.95
Info: NONBONDED TABLE R-SQUARED SPACING: 0.0625
Info: NONBONDED TABLE SIZE: 705 POINTS
TCL: Setting parameter alchLambda2 to 0.8999999999999999
Info: NONBONDED TABLE R-SQUARED SPACING: 0.0625
Info: NONBONDED TABLE SIZE: 705 POINTS
TCL: Running for 1500000 steps
ETITLE: TS BOND ANGLE DIHED IMPRP ELECT VDW BOUNDARY MISC KINETIC TOTAL TEMP POTENTIAL TOTALAVG TEMPAVG PRESSURE GPRESSURE VOLUME PRESSAVG GPRESSAVG
ENERGY: 0 3.4577 13.5723 7.6900 0.0000 -10833.6857 1508.3055 0.0000 0.0000 1824.9922 -7475.6680 308.6466 -9300.6602 -7475.6680 308.6466 331.3899 404.4471 30630.8922 331.3899 404.4471
ENERGY: 300000 8.0104 12.8356 5.3116 0.0000 -10788.5264 1471.7876 0.0000 0.0000 1697.7023 -7592.8790 287.1190 -9290.5813 -7504.0009 296.8301 307.4050 389.9651 29980.8958 264.4572 323.3983
ENERGY: 600000 3.5112 9.2894 8.3790 0.0000 -10541.7689 1360.7769 0.0000 0.0000 1782.9045 -7376.9078 301.5286 -9159.8123 -7476.5304 298.7437 -393.3059 -298.0325 30786.0419 28.5585 83.0744
ENERGY: 900000 4.0709 8.6613 2.7911 0.0000 -10715.7080 1469.7503 0.0000 0.0000 1761.5704 -7468.8639 297.9205 -9230.4343 -7474.4464 298.9236 448.1869 543.7102 30131.5557 16.3729 71.3946
ENERGY: 1200000 5.3390 12.7419 3.1960 0.0000 -10674.0963 1364.8722 0.0000 0.0000 1778.0855 -7509.8616 300.7136 -9287.9471 -7477.1374 299.6975 -566.1143 -563.3143 30531.7314 -45.6396 9.2511
ENERGY: 1500000 4.2146 7.7067 2.7951 0.0000 -10718.8617 1483.8948 0.0000 0.0000 1732.2151 -7488.0356 292.9559 -9220.2506 -7481.3990 299.0460 682.8070 688.4825 30311.6124 40.4580 87.9732
TCL: Running FEP window   3: Lambda1 0.8999999999999999 Lambda2 0.8499999999999999 [dLambda -0.050000000000000044]
TCL: Setting parameter firsttimestep to 0
TCL: Setting parameter alchLambda to 0.8999999999999999
Info: NONBONDED TABLE R-SQUARED SPACING: 0.0625
Info: NONBONDED TABLE SIZE: 705 POINTS
TCL: Setting parameter alchLambda2 to 0.8499999999999999
Info: NONBONDED TABLE R-SQUARED SPACING: 0.0625
Info: NONBONDED TABLE SIZE: 705 POINTS
TCL: Running for 1500000 steps
ETITLE: TS BOND ANGLE DIHED IMPRP ELECT VDW BOUNDARY MISC KINETIC TOTAL TEMP POTENTIAL TOTALAVG TEMPAVG PRESSURE GPRESSURE VOLUME PRESSAVG GPRESSAVG
ENERGY: 0 4.2146 7.7067 2.7951 0.0000 -10717.9412 1484.5574 0.0000 0.0000 1731.3529 -7487.3145 292.8101 -9218.6674 -7487.3145 292.8101 611.2637 682.4932 30311.6124 611.2637 682.4932
ENERGY: 300000 2.3018 12.3188 4.9547 0.0000 -10689.6009 1434.5646 0.0000 0.0000 1817.8260 -7417.6350 307.4346 -9235.4611 -7445.1118 300.3580 223.5676 317.6988 30235.4446 -7.1548 69.6188
ENERGY: 600000 1.7579 10.8409 6.9695 0.0000 -10674.5203 1357.8523 0.0000 0.0000 1752.5736 -7544.5262 296.3990 -9297.0998 -7452.2388 300.5925 -686.4745 -640.8394 30597.4143 -363.1653 -291.4129
ENERGY: 900000 3.4302 12.4437 4.9101 0.0000 -10774.8617 1428.2616 0.0000 0.0000 1802.5963 -7523.2198 304.8589 -9325.8161 -7456.7362 301.4486 -385.5052 -310.0318 30708.2684 -339.3860 -276.2291
ENERGY: 1200000 3.7086 13.7021 5.5282 0.0000 -10721.3654 1466.5941 0.0000 0.0000 1825.1515 -7406.6809 308.6735 -9231.8324 -7446.8124 301.2741 509.3504 618.6426 30275.4168 -183.3986 -112.7275
ENERGY: 1500000 2.0029 7.7847 3.8650 0.0000 -10779.2471 1515.4216 0.0000 0.0000 1788.0914 -7462.0815 302.4058 -9250.1730 -7452.2421 301.3959 938.0285 1039.1034 29919.4255 -75.4815 -12.6338
TCL: Running FEP window   4: Lambda1 0.8499999999999999 Lambda2 0.7999999999999998 [dLambda -0.050000000000000044]
TCL: Setting parameter firsttimestep to 0
TCL: Setting parameter alchLambda to 0.8499999999999999
Info: NONBONDED TABLE R-SQUARED SPACING: 0.0625
Info: NONBONDED TABLE SIZE: 705 POINTS
TCL: Setting parameter alchLambda2 to 0.7999999999999998
Info: NONBONDED TABLE R-SQUARED SPACING: 0.0625
Info: NONBONDED TABLE SIZE: 705 POINTS
TCL: Running for 1500000 steps
ETITLE: TS BOND ANGLE DIHED IMPRP ELECT VDW BOUNDARY MISC KINETIC TOTAL TEMP POTENTIAL TOTALAVG TEMPAVG PRESSURE GPRESSURE VOLUME PRESSAVG GPRESSAVG
ENERGY: 0 2.0029 7.7847 3.8650 0.0000 -10778.3950 1515.4678 0.0000 0.0000 1787.2006 -7462.0740 302.2552 -9249.2746 -7462.0740 302.2552 938.1196 1025.3370 29919.4255 938.1196 1025.3370
ENERGY: 300000 3.7221 11.7051 3.5156 0.0000 -10728.3451 1462.4663 0.0000 0.0000 1723.1319 -7523.8041 291.4197 -9246.9360 -7493.6619 299.2013 298.1695 323.2974 30503.9760 287.6975 358.4090
ENERGY: 600000 2.8159 14.4528 3.2155 0.0000 -10766.1010 1454.7677 0.0000 0.0000 1797.8804 -7492.9686 304.0614 -9290.8491 -7494.5973 299.7452 18.3065 113.3588 30526.6165 -0.8808 71.6137
ENERGY: 900000 2.4620 10.2837 3.9843 0.0000 -10713.3226 1457.1601 0.0000 0.0000 1783.8767 -7455.5558 301.6930 -9239.4325 -7488.9811 299.9426 74.0429 147.9616 30732.9788 -46.7526 26.7095
ENERGY: 1200000 3.7799 16.4560 5.2145 0.0000 -10571.3309 1372.6090 0.0000 0.0000 1755.3317 -7417.9398 296.8654 -9173.2715 -7475.4506 300.0878 -243.5937 -185.7397 30485.9054 -140.3473 -78.5487
ENERGY: 1500000 1.7237 10.8811 10.7720 0.0000 -10803.0106 1465.5656 0.0000 0.0000 1767.9585 -7546.1096 299.0009 -9314.0681 -7481.4756 300.7337 91.2550 169.5279 30519.2415 -136.5351 -74.6847
TCL: Running FEP window   5: Lambda1 0.7999999999999998 Lambda2 0.7499999999999998 [dLambda -0.050000000000000044]
TCL: Setting parameter firsttimestep to 0
TCL: Setting parameter alchLambda to 0.7999999999999998
Info: NONBONDED TABLE R-SQUARED SPACING: 0.0625
Info: NONBONDED TABLE SIZE: 705 POINTS
TCL: Setting parameter alchLambda2 to 0.7499999999999998
Info: NONBONDED TABLE R-SQUARED SPACING: 0.0625
Info: NONBONDED TABLE SIZE: 705 POINTS
TCL: Running for 1500000 steps
ETITLE: TS BOND ANGLE DIHED IMPRP ELECT VDW BOUNDARY MISC KINETIC TOTAL TEMP POTENTIAL TOTALAVG TEMPAVG PRESSURE GPRESSURE VOLUME PRESSAVG GPRESSAVG
ENERGY: 0 1.7238 10.8811 10.7720 0.0000 -10802.2235 1465.4724 0.0000 0.0000 1767.0798 -7546.2943 298.8523 -9313.3742 -7546.2943 298.8523 70.6979 155.4049 30519.2415 70.6979 155.4049
ENERGY: 300000 3.8032 13.7175 7.1826 0.0000 -10891.9999 1552.4253 0.0000 0.0000 1827.7747 -7487.0967 309.1171 -9314.8714 -7496.5941 298.9727 950.5360 995.9184 30400.3532 72.2163 145.1830
ENERGY: 600000 1.7051 12.8161 5.4827 0.0000 -10806.7503 1501.1531 0.0000 0.0000 1796.5082 -7489.0852 303.8293 -9285.5933 -7496.7326 299.6017 761.7333 777.3076 29999.7827 41.6949 102.1506
ENERGY: 900000 2.2931 9.4072 7.4090 0.0000 -10757.1836 1509.3251 0.0000 0.0000 1779.4649 -7449.2844 300.9469 -9228.7493 -7481.1384 299.9499 870.7499 884.7376 30247.2359 86.1788 142.0229
ENERGY: 1200000 0.6320 11.1265 5.0514 0.0000 -10754.5551 1444.8700 0.0000 0.0000 1765.4833 -7527.3918 298.5823 -9292.8751 -7476.8833 299.9953 -129.4024 -44.5791 30575.6834 82.8676 145.4762
ENERGY: 1500000 3.3875 14.4933 2.4942 0.0000 -10650.7726 1352.0973 0.0000 0.0000 1773.5097 -7504.7905 299.9397 -9278.3002 -7475.3366 300.4188 -900.4363 -814.8711 30623.5460 34.9250 100.7590
TCL: Running FEP window   6: Lambda1 0.7499999999999998 Lambda2 0.6999999999999997 [dLambda -0.050000000000000044]
TCL: Setting parameter firsttimestep to 0
TCL: Setting parameter alchLambda to 0.7499999999999998
Info: NONBONDED TABLE R-SQUARED SPACING: 0.0625
Info: NONBONDED TABLE SIZE: 705 POINTS
TCL: Setting parameter alchLambda2 to 0.6999999999999997
Info: NONBONDED TABLE R-SQUARED SPACING: 0.0625
Info: NONBONDED TABLE SIZE: 705 POINTS
TCL: Running for 1500000 steps
ETITLE: TS BOND ANGLE DIHED IMPRP ELECT VDW BOUNDARY MISC KINETIC TOTAL TEMP POTENTIAL TOTALAVG TEMPAVG PRESSURE GPRESSURE VOLUME PRESSAVG GPRESSAVG
ENERGY: 0 3.3875 14.4933 2.4942 0.0000 -10650.1065 1352.4416 0.0000 0.0000 1772.6451 -7504.6448 299.7935 -9277.2899 -7504.6448 299.7935 -912.1896 -821.7822 30623.5460 -912.1896 -821.7822
ENERGY: 300000 2.3289 9.6440 5.1045 0.0000 -10654.2396 1453.1130 0.0000 0.0000 1762.9086 -7421.1405 298.1469 -9184.0491 -7447.9175 302.3885 117.3616 181.4674 30998.5676 -260.1671 -182.0721
ENERGY: 600000 6.2268 9.0533 7.4112 0.0000 -10666.7039 1438.9449 0.0000 0.0000 1752.5093 -7452.5583 296.3881 -9205.0676 -7460.6338 300.5556 -168.0517 -127.9278 31194.9438 -237.2174 -182.5038
ENERGY: 900000 4.4650 9.6976 5.7102 0.0000 -10631.8741 1422.4757 0.0000 0.0000 1793.7222 -7395.8033 303.3581 -9189.5255 -7474.4443 299.8259 -439.8183 -369.3206 31250.4305 -249.2154 -191.8869
ENERGY: 1200000 4.3120 9.7935 2.7761 0.0000 -10743.4554 1394.8734 0.0000 0.0000 1794.9327 -7536.7678 303.5628 -9331.7005 -7476.8599 300.5297 -537.0667 -440.4980 30235.0598 -258.2295 -198.8862
ENERGY: 1500000 2.4622 7.2103 4.7270 0.0000 -10878.6472 1553.3132 0.0000 0.0000 1784.6724 -7526.2620 301.8276 -9310.9344 -7479.7614 301.1078 885.0637 974.4994 29954.7001 -153.4307 -92.2864
TCL: Running FEP window   7: Lambda1 0.6999999999999997 Lambda2 0.6499999999999997 [dLambda -0.050000000000000044]
TCL: Setting parameter firsttimestep to 0
TCL: Setting parameter alchLambda to 0.6999999999999997
Info: NONBONDED TABLE R-SQUARED SPACING: 0.0625
Info: NONBONDED TABLE SIZE: 705 POINTS
TCL: Setting parameter alchLambda2 to 0.6499999999999997
Info: NONBONDED TABLE R-SQUARED SPACING: 0.0625
Info: NONBONDED TABLE SIZE: 705 POINTS
TCL: Running for 1500000 steps
ETITLE: TS BOND ANGLE DIHED IMPRP ELECT VDW BOUNDARY MISC KINETIC TOTAL TEMP POTENTIAL TOTALAVG TEMPAVG PRESSURE GPRESSURE VOLUME PRESSAVG GPRESSAVG
ENERGY: 0 2.4622 7.2103 4.7270 0.0000 -10877.7915 1553.4990 0.0000 0.0000 1783.7682 -7526.1248 301.6747 -9309.8930 -7526.1248 301.6747 877.9737 961.1005 29954.7001 877.9737 961.1005
ENERGY: 300000 3.4744 7.6323 4.1281 0.0000 -10795.3665 1461.3557 0.0000 0.0000 1782.4016 -7536.3744 301.4435 -9318.7760 -7501.2452 300.1267 -330.0234 -245.3808 30850.6603 276.3091 359.4728
ENERGY: 600000 5.5903 6.9900 3.3416 0.0000 -10612.6905 1384.4616 0.0000 0.0000 1767.7903 -7444.5168 298.9725 -9212.3070 -7486.6097 299.5440 -25.3342 -30.9820 30116.2788 102.3982 155.6462
ENERGY: 900000 1.7517 8.7615 4.8603 0.0000 -10791.8666 1478.0986 0.0000 0.0000 1768.8593 -7529.5351 299.1532 -9298.3944 -7494.9790 299.8406 326.0898 438.2363 30231.6621 119.5545 188.3111
ENERGY: 1200000 7.1263 11.7129 3.7596 0.0000 -10689.2652 1425.6766 0.0000 0.0000 1733.9002 -7507.0896 293.2409 -9240.9898 -7484.2771 300.0698 -72.6757 -70.9923 30308.1483 106.1980 168.8596
ENERGY: 1500000 2.0713 10.9184 4.3443 0.0000 -10779.3275 1427.9965 0.0000 0.0000 1757.8477 -7576.1493 297.2909 -9333.9970 -7485.7661 299.5982 -489.0186 -427.7149 30692.7340 -15.4522 49.9576
TCL: Running FEP window   8: Lambda1 0.6499999999999997 Lambda2 0.5999999999999996 [dLambda -0.050000000000000044]
TCL: Setting parameter firsttimestep to 0
TCL: Setting parameter alchLambda to 0.6499999999999997
Info: NONBONDED TABLE R-SQUARED SPACING: 0.0625
Info: NONBONDED TABLE SIZE: 705 POINTS
TCL: Setting parameter alchLambda2 to 0.5999999999999996
Info: NONBONDED TABLE R-SQUARED SPACING: 0.0625
Info: NONBONDED TABLE SIZE: 705 POINTS
TCL: Running for 1500000 steps
ETITLE: TS BOND ANGLE DIHED IMPRP ELECT VDW BOUNDARY MISC KINETIC TOTAL TEMP POTENTIAL TOTALAVG TEMPAVG PRESSURE GPRESSURE VOLUME PRESSAVG GPRESSAVG
ENERGY: 0 2.0713 10.9184 4.3443 0.0000 -10779.1217 1428.7232 0.0000 0.0000 1756.9438 -7576.1206 297.1381 -9333.0645 -7576.1206 297.1381 -518.6032 -429.4658 30692.7340 -518.6032 -429.4658
ENERGY: 300000 2.4597 9.2663 7.1670 0.0000 -10601.0758 1368.5401 0.0000 0.0000 1819.7193 -7393.9234 307.7548 -9213.6428 -7463.1917 302.7228 -358.6308 -276.2339 30609.8474 -367.2710 -299.4130
ENERGY: 600000 2.3381 8.5079 9.1450 0.0000 -10814.9862 1563.8939 0.0000 0.0000 1794.0245 -7437.0768 303.4092 -9231.1012 -7462.1555 301.7391 1232.9817 1262.3520 30601.3153 1.0751 56.2160
ENERGY: 900000 5.8883 9.2433 4.3494 0.0000 -10729.4371 1399.5601 0.0000 0.0000 1868.0776 -7442.3185 315.9333 -9310.3960 -7467.6737 303.3694 -542.7414 -469.0803 30441.1113 -112.6605 -55.6063
ENERGY: 1200000 8.1934 9.9213 7.0655 0.0000 -10733.3843 1427.8183 0.0000 0.0000 1795.6982 -7484.6878 303.6923 -9280.3859 -7461.9122 303.8015 -40.9555 -9.2030 30672.5149 17.9364 66.4483
ENERGY: 1500000 4.0518 12.1712 4.5770 0.0000 -10886.1438 1445.3464 0.0000 0.0000 1768.3116 -7651.6858 299.0606 -9419.9973 -7474.9281 303.5830 -514.7984 -370.1402 30292.4951 16.8903 74.0029
TCL: Running FEP window   9: Lambda1 0.5999999999999996 Lambda2 0.5499999999999996 [dLambda -0.050000000000000044]
TCL: Setting parameter firsttimestep to 0
TCL: Setting parameter alchLambda to 0.5999999999999996
Info: NONBONDED TABLE R-SQUARED SPACING: 0.0625
Info: NONBONDED TABLE SIZE: 705 POINTS
TCL: Setting parameter alchLambda2 to 0.5499999999999996
Info: NONBONDED TABLE R-SQUARED SPACING: 0.0625
Info: NONBONDED TABLE SIZE: 705 POINTS
TCL: Running for 1500000 steps
ETITLE: TS BOND ANGLE DIHED IMPRP ELECT VDW BOUNDARY MISC KINETIC TOTAL TEMP POTENTIAL TOTALAVG TEMPAVG PRESSURE GPRESSURE VOLUME PRESSAVG GPRESSAVG
ENERGY: 0 4.0518 12.1712 4.5770 0.0000 -10886.3666 1446.1406 0.0000 0.0000 1767.4125 -7652.0134 298.9086 -9419.4259 -7652.0134 298.9086 -464.3469 -372.7523 30292.4951 -464.3469 -372.7523
ENERGY: 300000 6.3409 12.2559 4.4089 0.0000 -10734.5638 1481.6134 0.0000 0.0000 1772.0151 -7457.9297 299.6870 -9229.9448 -7498.5603 298.2341 521.6134 634.7050 30422.6092 -364.9858 -284.4035
ENERGY: 600000 4.3578 12.4556 4.0735 0.0000 -10589.9520 1391.6557 0.0000 0.0000 1777.5439 -7399.8654 300.6220 -9177.4093 -7463.4062 299.8530 -320.4275 -283.3340 30759.6129 -265.0321 -183.1727
ENERGY: 900000 2.3202 8.4833 7.0462 0.0000 -10841.2106 1528.9333 0.0000 0.0000 1785.2535 -7509.1740 301.9259 -9294.4275 -7471.3674 299.5833 936.3270 967.0114 30198.5098 -164.4817 -93.1692
ENERGY: 1200000 2.4574 5.9712 4.7348 0.0000 -10810.6601 1536.6843 0.0000 0.0000 1811.1839 -7449.6284 306.3113 -9260.8123 -7474.9153 300.2271 934.4514 1052.1718 30288.7201 -111.6670 -33.5959
ENERGY: 1500000 4.5059 9.8401 5.3506 0.0000 -10787.3986 1487.9610 0.0000 0.0000 1800.1803 -7479.5607 304.4503 -9279.7410 -7476.5540 300.3657 599.2717 662.4917 29959.0294 -32.6823 48.3227
TCL: Running FEP window  10: Lambda1 0.5499999999999996 Lambda2 0.4999999999999996 [dLambda -0.04999999999999999]
TCL: Setting parameter firsttimestep to 0
TCL: Setting parameter alchLambda to 0.5499999999999996
Info: NONBONDED TABLE R-SQUARED SPACING: 0.0625
Info: NONBONDED TABLE SIZE: 705 POINTS
TCL: Setting parameter alchLambda2 to 0.4999999999999996
Info: NONBONDED TABLE R-SQUARED SPACING: 0.0625
Info: NONBONDED TABLE SIZE: 705 POINTS
TCL: Running for 1500000 steps
ETITLE: TS BOND ANGLE DIHED IMPRP ELECT VDW BOUNDARY MISC KINETIC TOTAL TEMP POTENTIAL TOTALAVG TEMPAVG PRESSURE GPRESSURE VOLUME PRESSAVG GPRESSAVG
ENERGY: 0 4.5059 9.8401 5.3506 0.0000 -10787.1285 1488.4982 0.0000 0.0000 1799.2876 -7479.6460 304.2994 -9278.9337 -7479.6460 304.2994 561.0526 658.0958 29959.0294 561.0526 658.0958
ENERGY: 300000 2.9773 6.4796 5.2113 0.0000 -10717.1721 1446.9331 0.0000 0.0000 1811.0495 -7444.5213 306.2885 -9255.5708 -7474.5607 303.2734 -123.2688 43.5178 30626.1312 191.6363 265.6066
ENERGY: 600000 3.5866 12.6797 4.9776 0.0000 -10818.0994 1475.2463 0.0000 0.0000 1798.1257 -7523.4835 304.1029 -9321.6093 -7470.6908 302.2713 155.4245 139.1030 30647.5559 135.9658 185.6271
ENERGY: 900000 5.3791 9.9417 3.4344 0.0000 -10727.7548 1425.5114 0.0000 0.0000 1765.8562 -7517.6320 298.6454 -9283.4882 -7482.5272 300.1741 -181.9051 -122.7349 30440.4574 142.0301 195.9740
ENERGY: 1200000 1.9174 15.2269 3.5579 0.0000 -10667.2556 1450.0132 0.0000 0.0000 1816.3649 -7380.1754 307.1875 -9196.5403 -7484.7231 299.9604 208.1704 214.1080 30729.4996 71.9893 125.7657
ENERGY: 1500000 4.5928 11.9258 3.1049 0.0000 -10727.7295 1481.3531 0.0000 0.0000 1771.6161 -7455.1368 299.6195 -9226.7529 -7479.1483 300.2074 678.0707 778.8626 30107.7392 112.4511 169.7310
TCL: Running FEP window  11: Lambda1 0.4999999999999996 Lambda2 0.4499999999999996 [dLambda -0.04999999999999999]
TCL: Setting parameter firsttimestep to 0
TCL: Setting parameter alchLambda to 0.4999999999999996
Info: NONBONDED TABLE R-SQUARED SPACING: 0.0625
Info: NONBONDED TABLE SIZE: 705 POINTS
TCL: Setting parameter alchLambda2 to 0.4499999999999996
Info: NONBONDED TABLE R-SQUARED SPACING: 0.0625
Info: NONBONDED TABLE SIZE: 705 POINTS
TCL: Running for 1500000 steps
ETITLE: TS BOND ANGLE DIHED IMPRP ELECT VDW BOUNDARY MISC KINETIC TOTAL TEMP POTENTIAL TOTALAVG TEMPAVG PRESSURE GPRESSURE VOLUME PRESSAVG GPRESSAVG
ENERGY: 0 4.5928 11.9258 3.1049 0.0000 -10727.7973 1481.9425 0.0000 0.0000 1770.7155 -7455.5157 299.4672 -9226.2312 -7455.5157 299.4672 673.7533 770.9005 30107.7392 673.7533 770.9005
ENERGY: 300000 2.4250 10.9156 5.4541 0.0000 -10689.8928 1415.7248 0.0000 0.0000 1812.4562 -7442.9172 306.5264 -9255.3733 -7490.3856 300.7986 -259.4836 -228.3215 30388.0683 85.2726 154.7859
ENERGY: 600000 0.6862 13.1748 2.3032 0.0000 -10701.8096 1469.8343 0.0000 0.0000 1706.6972 -7509.1140 288.6403 -9215.8111 -7486.2137 298.3190 289.2258 318.0532 30559.4278 55.5043 121.9605
ENERGY: 900000 4.0850 11.0094 5.9796 0.0000 -10635.8635 1437.1944 0.0000 0.0000 1753.7069 -7423.8881 296.5906 -9177.5951 -7478.4956 297.3489 59.7273 168.0148 30726.8520 33.6670 98.8081
ENERGY: 1200000 5.0252 10.2776 3.0679 0.0000 -10546.8253 1298.9506 0.0000 0.0000 1808.1368 -7421.3672 305.7959 -9229.5039 -7480.4999 297.5950 -957.9674 -866.3869 30447.9459 1.8017 60.6515
ENERGY: 1500000 3.6849 12.3598 4.9383 0.0000 -10787.9353 1418.6442 0.0000 0.0000 1771.5578 -7576.7503 299.6096 -9348.3081 -7479.1036 297.6529 -447.9208 -361.1321 30336.1806 -80.0492 -15.1816
TCL: Running FEP window  12: Lambda1 0.4499999999999996 Lambda2 0.39999999999999963 [dLambda -0.04999999999999999]
TCL: Setting parameter firsttimestep to 0
TCL: Setting parameter alchLambda to 0.4499999999999996
Info: NONBONDED TABLE R-SQUARED SPACING: 0.0625
Info: NONBONDED TABLE SIZE: 705 POINTS
TCL: Setting parameter alchLambda2 to 0.39999999999999963
Info: NONBONDED TABLE R-SQUARED SPACING: 0.0625
Info: NONBONDED TABLE SIZE: 705 POINTS
TCL: Running for 1500000 steps
ETITLE: TS BOND ANGLE DIHED IMPRP ELECT VDW BOUNDARY MISC KINETIC TOTAL TEMP POTENTIAL TOTALAVG TEMPAVG PRESSURE GPRESSURE VOLUME PRESSAVG GPRESSAVG
ENERGY: 0 3.6849 12.3598 4.9383 0.0000 -10787.9348 1418.4295 0.0000 0.0000 1770.6416 -7577.8807 299.4547 -9348.5223 -7577.8807 299.4547 -449.1311 -367.4590 30336.1806 -449.1311 -367.4590
ENERGY: 300000 3.4157 8.6071 6.5809 0.0000 -10813.6373 1512.0849 0.0000 0.0000 1726.1747 -7556.7739 291.9343 -9282.9486 -7514.5308 295.3088 313.2645 388.9606 30543.7898 2.2694 86.7759
ENERGY: 600000 2.6362 10.4804 4.7946 0.0000 -10838.8406 1531.1398 0.0000 0.0000 1778.8291 -7510.9606 300.8394 -9289.7897 -7523.3664 296.7793 749.0631 770.5843 30153.6187 5.6888 59.4117
ENERGY: 900000 2.3751 9.3382 8.0142 0.0000 -10676.3021 1467.9000 0.0000 0.0000 1766.9711 -7421.7035 298.8339 -9188.6745 -7502.7801 297.7158 351.8624 379.9426 30424.3330 -77.5068 -16.4316
ENERGY: 1200000 2.6687 8.0520 5.7084 0.0000 -10830.6533 1490.4393 0.0000 0.0000 1787.2482 -7536.5367 302.2632 -9323.7849 -7493.7363 298.7938 -310.2182 -200.5776 31080.7536 -81.2036 -21.8431
ENERGY: 1500000 3.6104 11.3885 4.5622 0.0000 -10666.6772 1380.7153 0.0000 0.0000 1735.5289 -7530.8719 293.5163 -9266.4008 -7493.4511 298.3033 -521.2553 -416.8136 30450.3045 -119.2299 -59.1030
TCL: Running FEP window  13: Lambda1 0.39999999999999963 Lambda2 0.34999999999999964 [dLambda -0.04999999999999999]
TCL: Setting parameter firsttimestep to 0
TCL: Setting parameter alchLambda to 0.39999999999999963
Info: NONBONDED TABLE R-SQUARED SPACING: 0.0625
Info: NONBONDED TABLE SIZE: 705 POINTS
TCL: Setting parameter alchLambda2 to 0.34999999999999964
Info: NONBONDED TABLE R-SQUARED SPACING: 0.0625
Info: NONBONDED TABLE SIZE: 705 POINTS
TCL: Running for 1500000 steps
ETITLE: TS BOND ANGLE DIHED IMPRP ELECT VDW BOUNDARY MISC KINETIC TOTAL TEMP POTENTIAL TOTALAVG TEMPAVG PRESSURE GPRESSURE VOLUME PRESSAVG GPRESSAVG
ENERGY: 0 3.6104 11.3885 4.5622 0.0000 -10666.6765 1381.0344 0.0000 0.0000 1734.6418 -7531.4393 293.3663 -9266.0811 -7531.4393 293.3663 -506.4936 -421.6729 30450.3045 -506.4936 -421.6729
ENERGY: 300000 1.8528 11.1458 4.9331 0.0000 -10895.8819 1519.6739 0.0000 0.0000 1802.3260 -7555.9504 304.8132 -9358.2764 -7520.5029 301.6738 155.8098 246.2024 30630.6777 -88.0268 12.2911
ENERGY: 600000 5.2171 12.7068 4.6053 0.0000 -10866.1692 1563.2746 0.0000 0.0000 1748.5195 -7531.8458 295.7133 -9280.3653 -7518.7312 299.5304 712.0730 831.6361 30254.5930 108.8648 206.6152
ENERGY: 900000 2.7186 8.3953 4.2391 0.0000 -10690.1492 1406.0840 0.0000 0.0000 1752.1403 -7516.5720 296.3257 -9268.7123 -7518.7827 298.9305 -289.0933 -236.8905 30438.4500 118.5621 207.2635
ENERGY: 1200000 3.0203 7.0827 4.1476 0.0000 -10695.4200 1450.8509 0.0000 0.0000 1772.9763 -7457.3421 299.8495 -9230.3184 -7503.9922 299.5129 -56.8030 5.7421 30667.7000 109.6612 195.0145
ENERGY: 1500000 4.0335 7.0485 4.8974 0.0000 -10724.8785 1463.8424 0.0000 0.0000 1775.2597 -7469.7970 300.2357 -9245.0567 -7498.5480 299.8229 103.3523 187.2083 30244.5773 88.7626 171.8208
TCL: Running FEP window  14: Lambda1 0.34999999999999964 Lambda2 0.29999999999999966 [dLambda -0.04999999999999999]
TCL: Setting parameter firsttimestep to 0
TCL: Setting parameter alchLambda to 0.34999999999999964
Info: NONBONDED TABLE R-SQUARED SPACING: 0.0625
Info: NONBONDED TABLE SIZE: 705 POINTS
TCL: Setting parameter alchLambda2 to 0.29999999999999966
Info: NONBONDED TABLE R-SQUARED SPACING: 0.0625
Info: NONBONDED TABLE SIZE: 705 POINTS
TCL: Running for 1500000 steps
ETITLE: TS BOND ANGLE DIHED IMPRP ELECT VDW BOUNDARY MISC KINETIC TOTAL TEMP POTENTIAL TOTALAVG TEMPAVG PRESSURE GPRESSURE VOLUME PRESSAVG GPRESSAVG
ENERGY: 0 4.0335 7.0485 4.8974 0.0000 -10724.8781 1463.9027 0.0000 0.0000 1774.3894 -7470.6066 300.0885 -9244.9960 -7470.6066 300.0885 109.9891 179.0410 30244.5773 109.9891 179.0410
ENERGY: 300000 2.6255 9.6501 7.4720 0.0000 -10812.8992 1483.6926 0.0000 0.0000 1805.7788 -7503.6801 305.3972 -9309.4589 -7488.9951 301.0823 233.8413 310.7387 29988.7050 305.7125 371.2411
ENERGY: 600000 2.2234 9.0014 6.1329 0.0000 -10808.9100 1462.6250 0.0000 0.0000 1790.8694 -7538.0579 302.8756 -9328.9272 -7486.5060 299.9061 55.4043 154.0675 30190.2986 -43.6647 31.8392
ENERGY: 900000 1.4332 16.4358 7.2246 0.0000 -10862.2237 1599.1347 0.0000 0.0000 1816.8685 -7421.1269 307.2727 -9237.9954 -7475.0780 300.5871 1101.7296 1265.1118 30267.9409 132.7371 214.1087
ENERGY: 1200000 3.6424 10.5739 4.7600 0.0000 -10705.0428 1454.8277 0.0000 0.0000 1784.0159 -7447.2230 301.7166 -9231.2389 -7473.9464 300.5445 -91.5221 -93.2266 30959.3817 20.2305 86.5537
ENERGY: 1500000 3.9572 7.8993 7.1306 0.0000 -10671.9531 1480.4328 0.0000 0.0000 1795.0733 -7377.4600 303.5866 -9172.5333 -7464.5456 301.3553 41.3251 135.8841 31100.6743 -35.9624 32.9241
TCL: Running FEP window  15: Lambda1 0.29999999999999966 Lambda2 0.24999999999999967 [dLambda -0.04999999999999999]
TCL: Setting parameter firsttimestep to 0
TCL: Setting parameter alchLambda to 0.29999999999999966
Info: NONBONDED TABLE R-SQUARED SPACING: 0.0625
Info: NONBONDED TABLE SIZE: 705 POINTS
TCL: Setting parameter alchLambda2 to 0.24999999999999967
Info: NONBONDED TABLE R-SQUARED SPACING: 0.0625
Info: NONBONDED TABLE SIZE: 705 POINTS
TCL: Running for 1500000 steps
ETITLE: TS BOND ANGLE DIHED IMPRP ELECT VDW BOUNDARY MISC KINETIC TOTAL TEMP POTENTIAL TOTALAVG TEMPAVG PRESSURE GPRESSURE VOLUME PRESSAVG GPRESSAVG
ENERGY: 0 3.9572 7.8993 7.1306 0.0000 -10671.9530 1480.7100 0.0000 0.0000 1794.1682 -7378.0878 303.4335 -9172.2559 -7378.0878 303.4335 34.8439 132.0540 31100.6743 34.8439 132.0540
ENERGY: 300000 3.6501 14.2998 6.4268 0.0000 -10633.7500 1429.6651 0.0000 0.0000 1691.7207 -7487.9875 286.1074 -9179.7082 -7458.8134 298.0872 -81.7961 -91.5220 30935.4700 -193.1995 -127.0262
ENERGY: 600000 7.2458 8.4443 8.3263 0.0000 -10656.2625 1336.7469 0.0000 0.0000 1766.7302 -7528.7691 298.7932 -9295.4992 -7461.5902 299.5100 -999.7161 -936.8363 30113.0461 -400.8227 -340.1177
ENERGY: 900000 8.3730 12.1089 6.4166 0.0000 -10749.7033 1464.4040 0.0000 0.0000 1778.5219 -7479.8789 300.7874 -9258.4008 -7478.5095 299.0083 -386.7301 -328.3629 30958.3255 -301.4442 -237.8641
ENERGY: 1200000 4.6021 11.8884 5.7998 0.0000 -10761.3628 1448.5922 0.0000 0.0000 1774.1286 -7516.3517 300.0444 -9290.4802 -7483.9679 298.4714 290.1123 326.4399 29850.5278 -230.9770 -169.2914
ENERGY: 1500000 2.9999 9.0286 5.7853 0.0000 -10868.6936 1527.7365 0.0000 0.0000 1805.7206 -7517.4227 305.3873 -9323.1433 -7485.6120 299.0411 594.5473 678.1141 30022.8820 -164.3526 -102.7722
TCL: Running FEP window  16: Lambda1 0.24999999999999967 Lambda2 0.19999999999999968 [dLambda -0.04999999999999999]
TCL: Setting parameter firsttimestep to 0
TCL: Setting parameter alchLambda to 0.24999999999999967
Info: NONBONDED TABLE R-SQUARED SPACING: 0.0625
Info: NONBONDED TABLE SIZE: 705 POINTS
TCL: Setting parameter alchLambda2 to 0.19999999999999968
Info: NONBONDED TABLE R-SQUARED SPACING: 0.0625
Info: NONBONDED TABLE SIZE: 705 POINTS
TCL: Running for 1500000 steps
ETITLE: TS BOND ANGLE DIHED IMPRP ELECT VDW BOUNDARY MISC KINETIC TOTAL TEMP POTENTIAL TOTALAVG TEMPAVG PRESSURE GPRESSURE VOLUME PRESSAVG GPRESSAVG
ENERGY: 0 2.9999 9.0286 5.7853 0.0000 -10868.6927 1527.5129 0.0000 0.0000 1804.8594 -7518.5066 305.2417 -9323.3660 -7518.5066 305.2417 590.9380 669.6571 30022.8820 590.9380 669.6571
ENERGY: 300000 2.0620 10.0742 8.2947 0.0000 -10492.6623 1335.1543 0.0000 0.0000 1717.0977 -7419.9796 290.3992 -9137.0773 -7454.4229 301.1193 -514.0320 -482.3196 30777.1473 77.0627 147.5516
ENERGY: 600000 4.4089 12.0400 8.6443 0.0000 -10553.2380 1343.6382 0.0000 0.0000 1787.5430 -7396.9635 302.3131 -9184.5066 -7423.5047 303.0905 -666.8287 -655.0312 30750.3257 -14.8802 49.1815
ENERGY: 900000 5.3431 10.9421 4.3364 0.0000 -10655.4060 1366.6882 0.0000 0.0000 1775.6550 -7492.4413 300.3026 -9268.0963 -7437.1649 303.3519 -878.5906 -769.1119 30619.4427 -208.4255 -147.1836
ENERGY: 1200000 1.7002 7.3846 4.6741 0.0000 -10737.2486 1415.5175 0.0000 0.0000 1793.2738 -7514.6983 303.2823 -9307.9722 -7455.0836 303.4763 -146.4904 -107.0922 29998.0146 -129.0577 -73.2972
ENERGY: 1500000 3.2936 8.3401 5.5488 0.0000 -10640.8169 1383.4868 0.0000 0.0000 1817.1457 -7423.0019 307.3195 -9240.1476 -7452.9084 303.2095 -658.4588 -580.6875 30755.5326 -167.2216 -113.0564
TCL: Running FEP window  17: Lambda1 0.19999999999999968 Lambda2 0.1499999999999997 [dLambda -0.04999999999999999]
TCL: Setting parameter firsttimestep to 0
TCL: Setting parameter alchLambda to 0.19999999999999968
Info: NONBONDED TABLE R-SQUARED SPACING: 0.0625
Info: NONBONDED TABLE SIZE: 705 POINTS
TCL: Setting parameter alchLambda2 to 0.1499999999999997
Info: NONBONDED TABLE R-SQUARED SPACING: 0.0625
Info: NONBONDED TABLE SIZE: 705 POINTS
TCL: Running for 1500000 steps
ETITLE: TS BOND ANGLE DIHED IMPRP ELECT VDW BOUNDARY MISC KINETIC TOTAL TEMP POTENTIAL TOTALAVG TEMPAVG PRESSURE GPRESSURE VOLUME PRESSAVG GPRESSAVG
ENERGY: 0 3.2936 8.3401 5.5488 0.0000 -10640.8180 1383.8600 0.0000 0.0000 1816.2592 -7423.5163 307.1696 -9239.7755 -7423.5163 307.1696 -670.6246 -587.2764 30755.5326 -670.6246 -587.2764
ENERGY: 300000 1.8143 11.1061 5.0330 0.0000 -10639.1460 1352.6159 0.0000 0.0000 1766.7056 -7501.8711 298.7890 -9268.5767 -7452.7282 302.0002 -816.7942 -741.0984 30435.4863 -284.3324 -203.6573
ENERGY: 600000 5.6016 10.7882 6.8083 0.0000 -10723.4874 1490.6561 0.0000 0.0000 1792.1957 -7417.4374 303.1000 -9209.6331 -7472.0160 300.6846 399.4635 439.2224 30445.5160 -285.7095 -213.5629
ENERGY: 900000 0.7212 14.9322 10.3174 0.0000 -10623.9472 1427.0199 0.0000 0.0000 1828.0599 -7342.8966 309.1654 -9170.9565 -7463.3390 302.1251 -80.9750 40.4466 30766.1179 -355.2048 -282.0095
ENERGY: 1200000 6.5376 11.3475 4.0467 0.0000 -10726.0425 1440.2420 0.0000 0.0000 1706.3510 -7557.5175 288.5817 -9263.8685 -7459.6786 301.6652 -432.3809 -393.3717 30767.4380 -253.7350 -182.5699
ENERGY: 1500000 2.6413 10.2291 3.3122 0.0000 -10841.2144 1494.3370 0.0000 0.0000 1781.9678 -7548.7271 301.3702 -9330.6949 -7459.6289 301.3772 228.4246 318.2698 30268.9490 -154.8588 -90.9088
TCL: Running FEP window  18: Lambda1 0.1499999999999997 Lambda2 0.09999999999999969 [dLambda -0.05 ]
TCL: Setting parameter firsttimestep to 0
TCL: Setting parameter alchLambda to 0.1499999999999997
Info: NONBONDED TABLE R-SQUARED SPACING: 0.0625
Info: NONBONDED TABLE SIZE: 705 POINTS
TCL: Setting parameter alchLambda2 to 0.09999999999999969
Info: NONBONDED TABLE R-SQUARED SPACING: 0.0625
Info: NONBONDED TABLE SIZE: 705 POINTS
TCL: Running for 1500000 steps
ETITLE: TS BOND ANGLE DIHED IMPRP ELECT VDW BOUNDARY MISC KINETIC TOTAL TEMP POTENTIAL TOTALAVG TEMPAVG PRESSURE GPRESSURE VOLUME PRESSAVG GPRESSAVG
ENERGY: 0 2.6413 10.2291 3.3122 0.0000 -10841.2155 1494.0310 0.0000 0.0000 1781.0400 -7549.9620 301.2133 -9331.0020 -7549.9620 301.2133 220.2742 309.8646 30268.9490 220.2742 309.8646
ENERGY: 300000 2.3266 6.8126 6.0290 0.0000 -10704.3870 1447.9988 0.0000 0.0000 1769.9573 -7471.2628 299.3390 -9241.2201 -7512.1929 301.3533 187.0233 199.5046 29999.2693 134.3512 168.1465
ENERGY: 600000 1.4115 8.7069 4.4346 0.0000 -10729.8466 1468.7346 0.0000 0.0000 1724.7998 -7521.7593 291.7018 -9246.5590 -7499.3852 300.3832 195.7621 213.3334 30360.9213 213.1852 227.4555
ENERGY: 900000 4.3695 9.1747 3.1506 0.0000 -10632.4771 1421.5057 0.0000 0.0000 1784.8777 -7409.3990 301.8623 -9194.2767 -7492.2430 300.6539 -156.2386 -48.8352 30607.9346 149.7131 189.5435
ENERGY: 1200000 5.1808 11.3919 3.7766 0.0000 -10731.0573 1455.1294 0.0000 0.0000 1775.4697 -7480.1089 300.2712 -9255.5787 -7480.8563 300.2693 39.0443 29.6240 30437.1770 68.6827 105.5813
ENERGY: 1500000 4.4278 8.0461 4.7652 0.0000 -10741.8059 1425.6177 0.0000 0.0000 1697.6862 -7601.2630 287.1163 -9298.9492 -7486.1824 300.2779 -679.7097 -563.8325 30603.3597 16.6486 66.3464
TCL: Running FEP window  19: Lambda1 0.09999999999999969 Lambda2 0.049999999999999684 [dLambda -0.05 ]
TCL: Setting parameter firsttimestep to 0
TCL: Setting parameter alchLambda to 0.09999999999999969
Info: NONBONDED TABLE R-SQUARED SPACING: 0.0625
Info: NONBONDED TABLE SIZE: 705 POINTS
TCL: Setting parameter alchLambda2 to 0.049999999999999684
Info: NONBONDED TABLE R-SQUARED SPACING: 0.0625
Info: NONBONDED TABLE SIZE: 705 POINTS
TCL: Running for 1500000 steps
ETITLE: TS BOND ANGLE DIHED IMPRP ELECT VDW BOUNDARY MISC KINETIC TOTAL TEMP POTENTIAL TOTALAVG TEMPAVG PRESSURE GPRESSURE VOLUME PRESSAVG GPRESSAVG
ENERGY: 0 4.4278 8.0461 4.7652 0.0000 -10741.8060 1425.7169 0.0000 0.0000 1696.8208 -7602.0293 286.9699 -9298.8500 -7602.0293 286.9699 -661.4747 -568.5379 30603.3597 -661.4747 -568.5379
ENERGY: 300000 5.1369 9.7737 3.0184 0.0000 -10671.9461 1378.3283 0.0000 0.0000 1762.0908 -7513.5980 298.0085 -9275.6888 -7512.2871 297.3180 -696.8474 -593.2411 30364.5289 -497.5592 -431.2607
ENERGY: 600000 4.5758 13.8785 5.1136 0.0000 -10762.5702 1516.7892 0.0000 0.0000 1728.8547 -7493.3584 292.3876 -9222.2131 -7494.2774 299.9170 743.0893 820.5874 30298.8373 -52.7496 17.4861
ENERGY: 900000 3.4135 11.6156 3.6747 0.0000 -10685.3789 1464.1893 0.0000 0.0000 1830.3507 -7372.1351 309.5528 -9202.4858 -7461.5469 301.5838 329.2870 432.7992 30261.1179 -13.1669 66.5323
ENERGY: 1200000 5.2012 11.3957 3.9767 0.0000 -10732.5301 1424.8850 0.0000 0.0000 1739.0013 -7548.0701 294.1036 -9287.0714 -7469.0015 300.9318 -296.0703 -117.6854 29985.6751 -18.0442 62.0682
ENERGY: 1500000 4.8178 10.5713 5.7414 0.0000 -10640.4408 1408.2346 0.0000 0.0000 1790.6677 -7420.4080 302.8415 -9211.0757 -7463.8342 300.8998 -260.2147 -211.3658 30376.7090 -48.5932 25.6491
TCL: Running FEP window  20: Lambda1 0.049999999999999684 Lambda2 0.0    [dLambda -0.049999999999999684]
TCL: Setting parameter firsttimestep to 0
TCL: Setting parameter alchLambda to 0.049999999999999684
Info: NONBONDED TABLE R-SQUARED SPACING: 0.0625
Info: NONBONDED TABLE SIZE: 705 POINTS
TCL: Setting parameter alchLambda2 to 0.0
Info: NONBONDED TABLE R-SQUARED SPACING: 0.0625
Info: NONBONDED TABLE SIZE: 705 POINTS
TCL: Running for 1500000 steps
ETITLE: TS BOND ANGLE DIHED IMPRP ELECT VDW BOUNDARY MISC KINETIC TOTAL TEMP POTENTIAL TOTALAVG TEMPAVG PRESSURE GPRESSURE VOLUME PRESSAVG GPRESSAVG
ENERGY: 0 4.8178 10.5713 5.7414 0.0000 -10640.4394 1408.5036 0.0000 0.0000 1789.8117 -7420.9936 302.6968 -9210.8053 -7420.9936 302.6968 -300.9964 -216.6015 30376.7090 -300.9964 -216.6015
ENERGY: 300000 5.9736 14.6448 5.4887 0.0000 -10872.5039 1551.6323 0.0000 0.0000 1842.6999 -7452.0646 311.6413 -9294.7644 -7478.5086 300.1498 921.3114 976.9994 29979.3495 396.2816 461.4020
ENERGY: 600000 2.5367 10.2372 5.0587 0.0000 -10817.2527 1510.6995 0.0000 0.0000 1761.1825 -7527.5381 297.8549 -9288.7206 -7469.6682 300.6035 520.0832 621.8772 30107.9958 145.7929 211.9007
ENERGY: 900000 2.5280 12.8922 5.2060 0.0000 -10738.4966 1418.0979 0.0000 0.0000 1790.5687 -7509.2037 302.8248 -9299.7724 -7484.4928 299.1129 -606.0413 -537.2180 30675.2877 62.5688 127.9471
ENERGY: 1200000 5.3702 13.0423 2.0971 0.0000 -10760.8393 1513.0440 0.0000 0.0000 1763.2476 -7464.0382 298.2042 -9227.2858 -7489.7127 299.4882 840.3001 923.5732 29883.0573 124.3609 197.0765
ENERGY: 1500000 4.2891 10.8164 2.4812 0.0000 -10711.2918 1449.2488 0.0000 0.0000 1733.6434 -7510.8129 293.1975 -9244.4563 -7490.8730 298.8365 -139.3006 -20.9013 30523.8222 96.5159 172.7629
TCL: Exiting due to exit command.
