Info: SIMULATION PARAMETERS:
Info: TIMESTEP               2
Info: NUMBER OF STEPS        0
Info: STEPS PER CYCLE        10
Info: PERIODIC CELL BASIS 1  30.2998 0 0
Info: PERIODIC CELL BASIS 2  0 28.6044 0
Info: PERIODIC CELL BASIS 3  0 0 34.6507
Info: PERIODIC CELL CENTER   0 0 0
Info: WRAPPING WATERS AROUND PERIODIC BOUNDARIES ON OUTPUT.
Info: WRAPPING ALL CLUSTERS AROUND PERIODIC BOUNDARIES ON OUTPUT.
Info: FIRST LDB TIMESTEP     50
Info: LAST LDB TIMESTEP     -1
Info: HOM BACKGROUND SCALING 1
Info: PME BACKGROUND SCALING 1
Info: MIN ATOMS PER PATCH    40
Info: EMPTY PATCH LOAD       40 ATOMS
Info: VELOCITY FILE          mobley_1017962_equil.vel
Info: CENTER OF MASS MOVING INITIALLY? NO
Info: DIELECTRIC             1
Info: EXCLUDE                SCALED ONE-FOUR
Info: 1-4 ELECTROSTATICS SCALED BY 0.833333
Info: MODIFIED 1-4 VDW PARAMETERS WILL BE USED
Info: DCD FILENAME           mobley_1017962_prod.dcd
Info: DCD FREQUENCY          100000
Info: DCD FIRST STEP         100000
Info: DCD FILE WILL CONTAIN UNIT CELL DATA
Info: XST FILENAME           mobley_1017962_prod.xst
Info: XST FREQUENCY          100000
Info: NO VELOCITY DCD OUTPUT
Info: NO FORCE DCD OUTPUT
Info: OUTPUT FILENAME        mobley_1017962_prod
Info: BINARY OUTPUT FILES WILL BE USED
Info: RESTART FILENAME       mobley_1017962_prod.restart
Info: RESTART FREQUENCY      100000
Info: BINARY RESTART FILES WILL BE USED
Info: CUTOFF                 9
Info: PAIRLIST DISTANCE      11
Info: PAIRLIST SHRINK RATE   0.01
Info: PAIRLIST GROW RATE     0.01
Info: PAIRLIST TRIGGER       0.3
Info: PAIRLISTS PER CYCLE    2
Info: PAIRLISTS ENABLED
Info: MARGIN                 2
Info: HYDROGEN GROUP CUTOFF  2.5
Info: PATCH DIMENSION        15.5
Info: ENERGY OUTPUT STEPS    100000
Info: ENERGY EVALUATION STEPS    100000
Info: OUTPUT ENERGY PRECISION 4
Info: CROSSTERM ENERGY INCLUDED IN DIHEDRAL
Info: TIMING OUTPUT STEPS    1000000
Info: PRESSURE OUTPUT STEPS  100000
Info: ALCHEMICAL FEP ON
Info: FEP CURRENT LAMBDA VALUE     1
Info: FEP COMPARISON LAMBDA VALUE  0.95
Info: FEP INTRA-ALCHEMICAL NON-BONDED INTERACTIONS WILL BE RETAINED
Info: FEP INTRA-ALCHEMICAL BONDED INTERACTIONS WILL BE RETAINED
Info: FEP VDW SHIFTING COEFFICIENT 5
Info: FEP ELEC. ACTIVE FOR ANNIHILATED PARTICLES BETWEEN LAMBDA = 0 AND LAMBDA = 0.5
Info: FEP ELEC. ACTIVE FOR EXNIHILATED PARTICLES BETWEEN LAMBDA = 0.5 AND LAMBDA = 1
Info: FEP VDW ACTIVE FOR ANNIHILATED PARTICLES BETWEEN LAMBDA = 0 AND LAMBDA = 1
Info: FEP VDW ACTIVE FOR EXNIHILATED PARTICLES BETWEEN LAMBDA = 0 AND LAMBDA = 1
Info: FEP BOND ACTIVE FOR ANNIHILATED PARTICLES BETWEEN LAMBDA = 1 AND LAMBDA = 1
Info: FEP BOND ACTIVE FOR EXNIHILATED PARTICLES BETWEEN LAMBDA = 0 AND LAMBDA = 0
Info: LANGEVIN DYNAMICS ACTIVE
Info: LANGEVIN TEMPERATURE   300
Info: LANGEVIN USING BBK INTEGRATOR
Info: LANGEVIN DAMPING COEFFICIENT IS 1 INVERSE PS
Info: LANGEVIN DYNAMICS APPLIED TO HYDROGENS
Info: LANGEVIN PISTON PRESSURE CONTROL ACTIVE
Info:        TARGET PRESSURE IS 1.01325 BAR
Info:     OSCILLATION PERIOD IS 50 FS
Info:             DECAY TIME IS 25 FS
Info:     PISTON TEMPERATURE IS 300 K
Info:       PRESSURE CONTROL IS GROUP-BASED
Info:    INITIAL STRAIN RATE IS 0.00023253 0.00023253 0.00023253
Info:       CELL FLUCTUATION IS ISOTROPIC
Info: PARTICLE MESH EWALD (PME) ACTIVE
Info: PME TOLERANCE               1e-06
Info: PME EWALD COEFFICIENT       0.348832
Info: PME INTERPOLATION ORDER     4
Info: PME GRID DIMENSIONS         32 32 36
Info: PME MAXIMUM GRID SPACING    1
Info: PME CALCULATION WILL BE PERFORMED ON GPU
Info: FULL ELECTROSTATIC EVALUATION FREQUENCY      2
Info: USING VERLET I (r-RESPA) MTS SCHEME.
Info: C1 SPLITTING OF LONG RANGE ELECTROSTATICS
Info: PLACING ATOMS IN PATCHES BY HYDROGEN GROUPS
Info: RIGID BONDS TO HYDROGEN : ALL
Info:         ERROR TOLERANCE : 1e-08
Info:          MAX ITERATIONS : 100
Info: RIGID WATER USING SETTLE ALGORITHM
Info: RANDOM NUMBER SEED     1743978454
Info: USE HYDROGEN BONDS?    NO
Info: Using AMBER format force field!
Info: AMBER PARM FILE        mobley_1017962.prmtop
Info: COORDINATE PDB         mobley_1017962.pdb
Info: Exclusions will be read from PARM file!
Info: SCNB (VDW SCALING)     2
Info: USING ARITHMETIC MEAN TO COMBINE L-J SIGMA PARAMETERS
Info: BINARY COORDINATES     mobley_1017962_equil.coor
Info: SUMMARY OF PARAMETERS:
Info: 9 BONDS
Info: 11 ANGLES
Info:   11 HARMONIC
Info:   0 COSINE-BASED
Info: 16 DIHEDRAL
Info: 0 IMPROPER
Info: 0 CROSSTERM
Info: 0 VDW
Info: 36 VDW_PAIRS
Info: 0 NBTHOLE_PAIRS
Info: To read alchdata from file: mobley_1017962.pdb
Info: To read alchflag data from column: 5
Info: STRUCTURE SUMMARY:
Info: 2942 ATOMS
Info: 2941 BONDS
Info: 40 ANGLES
Info: 59 DIHEDRALS
Info: 0 IMPROPERS
Info: 0 CROSSTERMS
Info: 3028 EXCLUSIONS
Info: 2933 RIGID BONDS
Info: ALCH: 0 ATOMS TO DISAPPEAR IN FINAL STATE
Info: ALCH: 23 ATOMS TO APPEAR IN FINAL STATE
Info: 5893 DEGREES OF FREEDOM
Info: 982 HYDROGEN GROUPS
Info: 4 ATOMS IN LARGEST HYDROGEN GROUP
Info: 982 MIGRATION GROUPS
Info: 4 ATOMS IN LARGEST MIGRATION GROUP
Info: TOTAL MASS = 17659.8 amu
Info: TOTAL CHARGE = -0.000100002 e
Info: MASS DENSITY = 0.976468 g/cm^3
Info: ATOM DENSITY = 0.0979618 atoms/A^3
Info: ADDED 0 IMPLICIT EXCLUSIONS
Info: NONBONDED TABLE R-SQUARED SPACING: 0.0625
Info: NONBONDED TABLE SIZE: 705 POINTS
Info: REMOVING COM VELOCITY 0.109188 -0.214126 0.193213
Info: Use 3D box decompostion in PME FFT.
Info: Updated CUDA force table with 4096 elements.
Info: Updated CUDA LJ table with 8 x 8 elements.
Info: Found 26 unique exclusion lists needing 80 bytes
TCL: Running for 1500000 steps
ETITLE: TS BOND ANGLE DIHED IMPRP ELECT VDW BOUNDARY MISC KINETIC TOTAL TEMP POTENTIAL TOTALAVG TEMPAVG PRESSURE GPRESSURE VOLUME PRESSAVG GPRESSAVG
ENERGY: 0 0.5817 7.6465 3.8917 0.0000 -10721.3611 1472.6758 0.0000 0.0000 1752.4258 -7484.1396 299.2909 -9236.5654 -7484.1396 299.2909 469.1032 538.4331 30032.1031 469.1032 538.4331
ENERGY: 300000 0.2865 10.7158 3.0978 0.0000 -10562.4159 1386.8784 0.0000 0.0000 1769.3029 -7392.1346 302.1733 -9161.4374 -7442.9007 299.5585 -235.0459 -137.9957 30579.6259 -100.9155 -35.4405
ENERGY: 600000 1.0452 8.4193 2.3939 0.0000 -10691.9095 1573.5188 0.0000 0.0000 1727.4788 -7379.0534 295.0303 -9106.5323 -7443.9919 299.0840 1611.8083 1629.5892 30273.5689 275.1036 330.1105
ENERGY: 900000 2.5529 7.4859 3.7301 0.0000 -10603.7113 1391.4922 0.0000 0.0000 1784.9022 -7413.5481 304.8375 -9198.4503 -7448.4427 299.0306 95.1158 136.4060 30248.2243 212.4693 266.3950
ENERGY: 1200000 2.6632 11.2857 3.9076 0.0000 -10637.3903 1392.1732 0.0000 0.0000 1762.2690 -7465.0916 300.9720 -9227.3606 -7465.3332 299.6965 -241.3818 -203.2427 30229.0762 46.6141 105.3898
ENERGY: 1500000 2.9971 8.2475 6.7288 0.0000 -10700.7163 1455.6679 0.0000 0.0000 1830.4516 -7396.6233 312.6167 -9227.0749 -7458.2379 301.0893 267.0977 369.7116 30261.0337 31.6450 95.4302
TCL: Running FEP window   2: Lambda1 0.95   Lambda2 0.8999999999999999 [dLambda -0.050000000000000044]
TCL: Setting parameter firsttimestep to 0
TCL: Setting parameter alchLambda to 0.95
Info: NONBONDED TABLE R-SQUARED SPACING: 0.0625
Info: NONBONDED TABLE SIZE: 705 POINTS
TCL: Setting parameter alchLambda2 to 0.8999999999999999
Info: NONBONDED TABLE R-SQUARED SPACING: 0.0625
Info: NONBONDED TABLE SIZE: 705 POINTS
TCL: Running for 1500000 steps
ETITLE: TS BOND ANGLE DIHED IMPRP ELECT VDW BOUNDARY MISC KINETIC TOTAL TEMP POTENTIAL TOTALAVG TEMPAVG PRESSURE GPRESSURE VOLUME PRESSAVG GPRESSAVG
ENERGY: 0 2.9971 8.2475 6.7288 0.0000 -10700.0334 1456.2623 0.0000 0.0000 1829.5716 -7396.2259 312.4664 -9225.7975 -7396.2259 312.4664 273.9866 362.0229 30261.0337 273.9866 362.0229
ENERGY: 300000 3.4859 8.5573 5.1772 0.0000 -10555.1315 1381.8537 0.0000 0.0000 1789.0205 -7367.0370 305.5408 -9156.0574 -7411.5598 305.6936 -212.6745 -174.1631 30382.9906 -244.3611 -166.7615
ENERGY: 600000 0.7385 10.8117 4.4252 0.0000 -10676.9448 1408.6633 0.0000 0.0000 1793.1740 -7459.1320 306.2502 -9252.3060 -7441.6570 304.3423 -298.2375 -250.2466 30344.0851 -348.9378 -279.1000
ENERGY: 900000 2.6427 6.7756 2.8606 0.0000 -10594.0915 1388.9936 0.0000 0.0000 1785.3597 -7407.4593 304.9156 -9192.8190 -7434.8229 302.7050 -485.8763 -427.9431 30648.6207 -289.1880 -227.7507
ENERGY: 1200000 3.2507 12.0301 4.1709 0.0000 -10622.1750 1418.6651 0.0000 0.0000 1748.7328 -7435.3254 298.6602 -9184.0581 -7435.3742 302.5744 188.2622 229.1885 30201.2525 -259.1005 -201.8148
ENERGY: 1500000 2.9101 8.9097 6.5549 0.0000 -10686.2588 1439.7385 0.0000 0.0000 1746.4951 -7481.6505 298.2781 -9228.1456 -7429.2585 302.8810 -132.1282 -73.7833 30428.2687 -168.0713 -110.2825
TCL: Running FEP window   3: Lambda1 0.8999999999999999 Lambda2 0.8499999999999999 [dLambda -0.050000000000000044]
TCL: Setting parameter firsttimestep to 0
TCL: Setting parameter alchLambda to 0.8999999999999999
Info: NONBONDED TABLE R-SQUARED SPACING: 0.0625
Info: NONBONDED TABLE SIZE: 705 POINTS
TCL: Setting parameter alchLambda2 to 0.8499999999999999
Info: NONBONDED TABLE R-SQUARED SPACING: 0.0625
Info: NONBONDED TABLE SIZE: 705 POINTS
TCL: Running for 1500000 steps
ETITLE: TS BOND ANGLE DIHED IMPRP ELECT VDW BOUNDARY MISC KINETIC TOTAL TEMP POTENTIAL TOTALAVG TEMPAVG PRESSURE GPRESSURE VOLUME PRESSAVG GPRESSAVG
ENERGY: 0 2.9101 8.9097 6.5549 0.0000 -10684.8383 1439.1309 0.0000 0.0000 1745.6428 -7481.6899 298.1325 -9227.3327 -7481.6899 298.1325 -176.5613 -90.6779 30428.2687 -176.5613 -90.6779
ENERGY: 300000 1.4294 10.8922 5.7959 0.0000 -10813.2456 1537.6494 0.0000 0.0000 1709.9944 -7547.4843 292.0442 -9257.4787 -7511.5293 297.0373 816.4212 822.9406 29849.1885 384.2977 427.9960
ENERGY: 600000 4.0675 10.9284 3.4073 0.0000 -10661.0418 1399.1326 0.0000 0.0000 1778.3778 -7465.1281 303.7232 -9243.5059 -7490.5719 299.3684 -312.2119 -231.1416 30289.0296 156.1592 225.5724
ENERGY: 900000 3.7579 8.6113 3.9493 0.0000 -10636.2963 1395.5619 0.0000 0.0000 1756.7899 -7467.6260 300.0363 -9224.4159 -7479.9932 298.5453 -537.2429 -507.4294 30814.0851 103.0414 171.6709
ENERGY: 1200000 2.9100 10.4377 6.0745 0.0000 -10635.2780 1391.8606 0.0000 0.0000 1779.6688 -7444.3263 303.9437 -9223.9952 -7470.7994 299.5576 -128.1866 -16.0521 29950.5882 10.7216 94.9415
ENERGY: 1500000 1.6349 11.5340 4.1573 0.0000 -10676.2969 1414.9802 0.0000 0.0000 1716.8254 -7527.1651 293.2109 -9243.9905 -7473.5919 298.7397 -102.9200 -71.0968 30142.8930 78.7587 159.0749
TCL: Running FEP window   4: Lambda1 0.8499999999999999 Lambda2 0.7999999999999998 [dLambda -0.050000000000000044]
TCL: Setting parameter firsttimestep to 0
TCL: Setting parameter alchLambda to 0.8499999999999999
Info: NONBONDED TABLE R-SQUARED SPACING: 0.0625
Info: NONBONDED TABLE SIZE: 705 POINTS
TCL: Setting parameter alchLambda2 to 0.7999999999999998
Info: NONBONDED TABLE R-SQUARED SPACING: 0.0625
Info: NONBONDED TABLE SIZE: 705 POINTS
TCL: Running for 1500000 steps
ETITLE: TS BOND ANGLE DIHED IMPRP ELECT VDW BOUNDARY MISC KINETIC TOTAL TEMP POTENTIAL TOTALAVG TEMPAVG PRESSURE GPRESSURE VOLUME PRESSAVG GPRESSAVG
ENERGY: 0 1.6349 11.5340 4.1573 0.0000 -10676.0014 1415.3691 0.0000 0.0000 1715.9715 -7527.3346 293.0650 -9243.3061 -7527.3346 293.0650 -152.0696 -81.9171 30142.8930 -152.0696 -81.9171
ENERGY: 300000 2.8041 12.8302 4.5107 0.0000 -10716.0141 1485.9069 0.0000 0.0000 1795.3112 -7414.6510 306.6152 -9209.9622 -7461.8640 301.5128 558.9569 608.1003 30100.6944 105.8342 155.4012
ENERGY: 600000 3.7030 14.4251 5.8973 0.0000 -10645.1814 1463.7330 0.0000 0.0000 1719.2386 -7438.1844 293.6230 -9157.4230 -7449.0759 300.0027 771.5504 795.1918 29996.7869 158.3785 197.9536
ENERGY: 900000 2.0082 9.2945 4.5142 0.0000 -10627.2179 1436.2161 0.0000 0.0000 1686.7630 -7488.4219 288.0766 -9175.1848 -7447.6537 299.4250 -10.6869 116.7530 30144.5682 191.2888 251.2315
ENERGY: 1200000 2.8130 8.5352 4.0409 0.0000 -10637.2004 1477.3063 0.0000 0.0000 1801.3246 -7343.1804 307.6422 -9144.5050 -7449.4651 298.5371 783.0928 796.7799 29928.1481 113.7052 169.3396
ENERGY: 1500000 1.7358 5.9871 8.1377 0.0000 -10607.7432 1439.0672 0.0000 0.0000 1742.5171 -7410.2984 297.5987 -9152.8155 -7452.8616 298.1753 153.8829 235.6971 30226.1909 56.4952 109.8236
TCL: Running FEP window   5: Lambda1 0.7999999999999998 Lambda2 0.7499999999999998 [dLambda -0.050000000000000044]
TCL: Setting parameter firsttimestep to 0
TCL: Setting parameter alchLambda to 0.7999999999999998
Info: NONBONDED TABLE R-SQUARED SPACING: 0.0625
Info: NONBONDED TABLE SIZE: 705 POINTS
TCL: Setting parameter alchLambda2 to 0.7499999999999998
Info: NONBONDED TABLE R-SQUARED SPACING: 0.0625
Info: NONBONDED TABLE SIZE: 705 POINTS
TCL: Running for 1500000 steps
ETITLE: TS BOND ANGLE DIHED IMPRP ELECT VDW BOUNDARY MISC KINETIC TOTAL TEMP POTENTIAL TOTALAVG TEMPAVG PRESSURE GPRESSURE VOLUME PRESSAVG GPRESSAVG
ENERGY: 0 1.7358 5.9871 8.1377 0.0000 -10605.9546 1438.0826 0.0000 0.0000 1741.6706 -7410.3409 297.4541 -9152.0115 -7410.3409 297.4541 131.7011 212.5812 30226.1909 131.7011 212.5812
ENERGY: 300000 1.7644 11.1347 5.0920 0.0000 -10637.7624 1413.9197 0.0000 0.0000 1787.8031 -7418.0484 305.3329 -9205.8516 -7439.0623 300.2612 -48.1697 -42.3612 30146.1997 -367.8259 -308.8655
ENERGY: 600000 2.2337 10.7349 4.9311 0.0000 -10630.4639 1419.8266 0.0000 0.0000 1754.7683 -7437.9692 299.6910 -9192.7376 -7438.4352 300.2330 0.0242 60.6179 30194.4175 -264.9637 -205.5339
ENERGY: 900000 5.8241 8.6213 3.4137 0.0000 -10616.8364 1484.9728 0.0000 0.0000 1792.2159 -7321.7884 306.0866 -9114.0044 -7410.4903 301.9013 839.4153 871.9669 30344.9347 -24.1367 31.4754
ENERGY: 1200000 1.9569 9.8796 5.2344 0.0000 -10846.3179 1561.3417 0.0000 0.0000 1733.9915 -7533.9138 296.1426 -9267.9053 -7425.8537 301.5373 790.2848 837.0812 30209.7444 107.1935 165.3862
ENERGY: 1500000 3.9292 11.3239 4.4779 0.0000 -10810.0527 1519.4985 0.0000 0.0000 1781.9915 -7488.8318 304.3404 -9270.8232 -7438.7086 300.9435 787.0891 833.7665 29760.6475 73.2794 135.5051
TCL: Running FEP window   6: Lambda1 0.7499999999999998 Lambda2 0.6999999999999997 [dLambda -0.050000000000000044]
TCL: Setting parameter firsttimestep to 0
TCL: Setting parameter alchLambda to 0.7499999999999998
Info: NONBONDED TABLE R-SQUARED SPACING: 0.0625
Info: NONBONDED TABLE SIZE: 705 POINTS
TCL: Setting parameter alchLambda2 to 0.6999999999999997
Info: NONBONDED TABLE R-SQUARED SPACING: 0.0625
Info: NONBONDED TABLE SIZE: 705 POINTS
TCL: Running for 1500000 steps
ETITLE: TS BOND ANGLE DIHED IMPRP ELECT VDW BOUNDARY MISC KINETIC TOTAL TEMP POTENTIAL TOTALAVG TEMPAVG PRESSURE GPRESSURE VOLUME PRESSAVG GPRESSAVG
ENERGY: 0 3.9292 11.3239 4.4779 0.0000 -10809.5434 1519.2380 0.0000 0.0000 1781.1072 -7489.4671 304.1893 -9270.5743 -7489.4671 304.1893 721.9378 815.8410 29760.6475 721.9378 815.8410
ENERGY: 300000 1.1786 12.6928 6.0178 0.0000 -10697.4539 1455.9909 0.0000 0.0000 1757.9397 -7463.6340 300.2327 -9221.5738 -7445.0123 300.6033 94.2655 140.3028 30218.5997 141.0635 234.4502
ENERGY: 600000 3.4185 7.0140 4.8390 0.0000 -10727.2738 1449.2631 0.0000 0.0000 1770.6084 -7492.1307 302.3963 -9262.7391 -7460.7345 300.2130 8.7413 130.8159 30005.7394 -0.8408 87.6783
ENERGY: 900000 1.7934 15.2837 6.8641 0.0000 -10630.3982 1385.6734 0.0000 0.0000 1791.7207 -7429.0629 306.0020 -9220.7835 -7449.0161 301.3993 -447.4652 -338.6809 30413.8556 17.8375 98.6500
ENERGY: 1200000 2.1080 10.2414 4.2565 0.0000 -10663.7261 1442.8599 0.0000 0.0000 1794.5874 -7409.6729 306.4916 -9204.2603 -7450.0966 302.3102 245.6018 305.8088 30056.5075 65.0805 139.8800
ENERGY: 1500000 3.0568 15.7794 2.6206 0.0000 -10551.0182 1352.1670 0.0000 0.0000 1760.9004 -7416.4941 300.7383 -9177.3944 -7447.2582 301.7837 -471.1333 -404.1898 30281.8398 -46.3482 21.7136
TCL: Running FEP window   7: Lambda1 0.6999999999999997 Lambda2 0.6499999999999997 [dLambda -0.050000000000000044]
TCL: Setting parameter firsttimestep to 0
TCL: Setting parameter alchLambda to 0.6999999999999997
Info: NONBONDED TABLE R-SQUARED SPACING: 0.0625
Info: NONBONDED TABLE SIZE: 705 POINTS
TCL: Setting parameter alchLambda2 to 0.6499999999999997
Info: NONBONDED TABLE R-SQUARED SPACING: 0.0625
Info: NONBONDED TABLE SIZE: 705 POINTS
TCL: Running for 1500000 steps
ETITLE: TS BOND ANGLE DIHED IMPRP ELECT VDW BOUNDARY MISC KINETIC TOTAL TEMP POTENTIAL TOTALAVG TEMPAVG PRESSURE GPRESSURE VOLUME PRESSAVG GPRESSAVG
ENERGY: 0 3.0568 15.7794 2.6206 0.0000 -10550.3988 1352.5100 0.0000 0.0000 1760.0109 -7416.4212 300.5864 -9176.4320 -7416.4212 300.5864 -500.6173 -408.8884 30281.8398 -500.6173 -408.8884
ENERGY: 300000 1.4220 7.0323 4.2068 0.0000 -10717.8771 1510.5794 0.0000 0.0000 1750.7487 -7443.8879 299.0045 -9194.6366 -7417.1202 301.9608 972.5595 968.2781 29856.0821 383.2679 467.6998
ENERGY: 600000 2.5990 7.5440 4.9333 0.0000 -10593.3732 1378.1469 0.0000 0.0000 1769.0139 -7431.1362 302.1240 -9200.1501 -7424.5901 301.1709 -568.9533 -543.0732 30547.1124 35.5468 103.4684
ENERGY: 900000 1.6951 13.9160 5.2131 0.0000 -10521.6115 1326.1646 0.0000 0.0000 1780.7471 -7393.8756 304.1279 -9174.6227 -7425.6874 300.1134 -637.0447 -579.3065 30148.7008 -60.6727 5.0152
ENERGY: 1200000 3.0585 6.2493 4.4772 0.0000 -10530.8085 1335.3891 0.0000 0.0000 1751.5813 -7430.0530 299.1467 -9181.6344 -7422.5439 300.3246 -796.1114 -690.6240 30366.3141 -61.0378 6.5017
ENERGY: 1500000 5.0294 6.6367 3.9147 0.0000 -10764.0884 1468.5833 0.0000 0.0000 1750.8099 -7529.1143 299.0150 -9279.9242 -7432.9890 299.9074 402.8570 391.6770 29648.1699 24.0464 82.3535
TCL: Running FEP window   8: Lambda1 0.6499999999999997 Lambda2 0.5999999999999996 [dLambda -0.050000000000000044]
TCL: Setting parameter firsttimestep to 0
TCL: Setting parameter alchLambda to 0.6499999999999997
Info: NONBONDED TABLE R-SQUARED SPACING: 0.0625
Info: NONBONDED TABLE SIZE: 705 POINTS
TCL: Setting parameter alchLambda2 to 0.5999999999999996
Info: NONBONDED TABLE R-SQUARED SPACING: 0.0625
Info: NONBONDED TABLE SIZE: 705 POINTS
TCL: Running for 1500000 steps
ETITLE: TS BOND ANGLE DIHED IMPRP ELECT VDW BOUNDARY MISC KINETIC TOTAL TEMP POTENTIAL TOTALAVG TEMPAVG PRESSURE GPRESSURE VOLUME PRESSAVG GPRESSAVG
ENERGY: 0 5.0294 6.6367 3.9147 0.0000 -10763.5682 1469.0438 0.0000 0.0000 1749.9023 -7529.0411 298.8600 -9278.9434 -7529.0411 298.8600 324.3138 387.1496 29648.1699 324.3138 387.1496
ENERGY: 300000 2.9525 14.1326 4.7625 0.0000 -10483.4363 1321.6467 0.0000 0.0000 1804.6917 -7335.2504 308.2173 -9139.9420 -7457.7867 299.3871 -950.9871 -860.7026 31189.8839 -200.1324 -137.8980
ENERGY: 600000 2.1273 12.6828 9.5668 0.0000 -10806.2953 1487.3040 0.0000 0.0000 1813.2728 -7481.3416 309.6828 -9294.6144 -7457.7689 300.7184 260.5286 336.4675 29775.2016 -171.8356 -115.8471
ENERGY: 900000 1.0379 8.9758 5.2435 0.0000 -10780.4840 1529.4644 0.0000 0.0000 1771.6785 -7464.0841 302.5790 -9235.7625 -7465.4245 300.2216 751.5141 822.0534 29985.3105 60.5113 125.8972
ENERGY: 1200000 2.8632 9.9435 4.5290 0.0000 -10614.5803 1377.2257 0.0000 0.0000 1750.9784 -7469.0405 299.0437 -9220.0189 -7454.5789 300.1913 -532.0075 -464.8703 30346.9593 21.4020 81.8383
ENERGY: 1500000 3.4802 10.3435 5.0353 0.0000 -10563.1010 1372.8369 0.0000 0.0000 1727.9524 -7443.4527 295.1112 -9171.4052 -7441.8343 300.4773 -673.6408 -626.0586 30471.2340 -30.7190 29.2438
TCL: Running FEP window   9: Lambda1 0.5999999999999996 Lambda2 0.5499999999999996 [dLambda -0.050000000000000044]
TCL: Setting parameter firsttimestep to 0
TCL: Setting parameter alchLambda to 0.5999999999999996
Info: NONBONDED TABLE R-SQUARED SPACING: 0.0625
Info: NONBONDED TABLE SIZE: 705 POINTS
TCL: Setting parameter alchLambda2 to 0.5499999999999996
Info: NONBONDED TABLE R-SQUARED SPACING: 0.0625
Info: NONBONDED TABLE SIZE: 705 POINTS
TCL: Running for 1500000 steps
ETITLE: TS BOND ANGLE DIHED IMPRP ELECT VDW BOUNDARY MISC KINETIC TOTAL TEMP POTENTIAL TOTALAVG TEMPAVG PRESSURE GPRESSURE VOLUME PRESSAVG GPRESSAVG
ENERGY: 0 3.4802 10.3435 5.0353 0.0000 -10562.2907 1373.4964 0.0000 0.0000 1727.0896 -7442.8457 294.9639 -9169.9353 -7442.8457 294.9639 -717.9540 -626.4138 30471.2340 -717.9540 -626.4138
ENERGY: 300000 1.6016 7.6182 4.1500 0.0000 -10768.4328 1491.6805 0.0000 0.0000 1743.4852 -7519.8973 297.7640 -9263.3824 -7418.3279 303.5543 357.3745 442.3230 29828.9906 -110.4812 -36.2811
ENERGY: 600000 3.3031 9.4975 2.7390 0.0000 -10541.8864 1374.7891 0.0000 0.0000 1717.2399 -7434.3179 293.2817 -9151.5578 -7425.1886 301.9641 -440.9753 -418.2040 30609.1808 -247.0680 -179.1848
ENERGY: 900000 1.2847 11.0721 6.2315 0.0000 -10468.3881 1316.0182 0.0000 0.0000 1754.1270 -7379.6545 299.5815 -9133.7815 -7422.6795 301.9804 -838.3625 -730.1788 30320.4157 -145.6007 -80.9240
ENERGY: 1200000 0.8096 7.0007 4.1548 0.0000 -10727.1892 1498.4088 0.0000 0.0000 1763.6007 -7453.2146 301.1995 -9216.8153 -7420.8166 301.4028 426.1412 481.0702 30215.6661 -79.6973 -13.6962
ENERGY: 1500000 0.6088 8.5883 3.7502 0.0000 -10620.3182 1394.6102 0.0000 0.0000 1756.1171 -7456.6436 299.9214 -9212.7607 -7418.5727 300.9739 -305.4421 -253.8621 30292.8436 -90.6480 -26.2442
TCL: Running FEP window  10: Lambda1 0.5499999999999996 Lambda2 0.4999999999999996 [dLambda -0.04999999999999999]
TCL: Setting parameter firsttimestep to 0
TCL: Setting parameter alchLambda to 0.5499999999999996
Info: NONBONDED TABLE R-SQUARED SPACING: 0.0625
Info: NONBONDED TABLE SIZE: 705 POINTS
TCL: Setting parameter alchLambda2 to 0.4999999999999996
Info: NONBONDED TABLE R-SQUARED SPACING: 0.0625
Info: NONBONDED TABLE SIZE: 705 POINTS
TCL: Running for 1500000 steps
ETITLE: TS BOND ANGLE DIHED IMPRP ELECT VDW BOUNDARY MISC KINETIC TOTAL TEMP POTENTIAL TOTALAVG TEMPAVG PRESSURE GPRESSURE VOLUME PRESSAVG GPRESSAVG
ENERGY: 0 0.6088 8.5883 3.7502 0.0000 -10619.7873 1395.0510 0.0000 0.0000 1755.2727 -7456.5163 299.7772 -9211.7890 -7456.5163 299.7772 -338.5488 -255.7662 30292.8436 -338.5488 -255.7662
ENERGY: 300000 3.0182 12.6466 3.8343 0.0000 -10775.1125 1521.9684 0.0000 0.0000 1793.6545 -7439.9904 306.3323 -9233.6449 -7439.9410 300.5227 769.1412 884.3817 29738.1308 -82.1118 8.7191
ENERGY: 600000 1.9028 10.1899 2.3915 0.0000 -10648.4221 1430.3340 0.0000 0.0000 1737.5601 -7466.0437 296.7521 -9203.6039 -7454.6860 299.9589 -22.9902 6.2498 30178.4816 -132.1220 -58.5308
ENERGY: 900000 0.8729 13.4611 3.4172 0.0000 -10455.8282 1351.3764 0.0000 0.0000 1686.0382 -7400.6624 287.9528 -9086.7006 -7449.3501 298.9098 -726.6279 -624.6943 30769.3846 -156.4613 -85.7522
ENERGY: 1200000 4.1425 9.7566 3.9702 0.0000 -10821.5562 1552.8600 0.0000 0.0000 1743.6736 -7507.1532 297.7962 -9250.8268 -7454.8633 299.0046 648.7122 725.6073 30304.8699 -103.6744 -27.4344
ENERGY: 1500000 1.4736 5.4966 3.9248 0.0000 -10570.8632 1454.5030 0.0000 0.0000 1781.7160 -7323.7491 304.2933 -9105.4651 -7449.8817 299.1528 404.2240 488.7418 30210.2626 -17.6484 64.5690
TCL: Running FEP window  11: Lambda1 0.4999999999999996 Lambda2 0.4499999999999996 [dLambda -0.04999999999999999]
TCL: Setting parameter firsttimestep to 0
TCL: Setting parameter alchLambda to 0.4999999999999996
Info: NONBONDED TABLE R-SQUARED SPACING: 0.0625
Info: NONBONDED TABLE SIZE: 705 POINTS
TCL: Setting parameter alchLambda2 to 0.4499999999999996
Info: NONBONDED TABLE R-SQUARED SPACING: 0.0625
Info: NONBONDED TABLE SIZE: 705 POINTS
TCL: Running for 1500000 steps
ETITLE: TS BOND ANGLE DIHED IMPRP ELECT VDW BOUNDARY MISC KINETIC TOTAL TEMP POTENTIAL TOTALAVG TEMPAVG PRESSURE GPRESSURE VOLUME PRESSAVG GPRESSAVG
ENERGY: 0 1.4736 5.4966 3.9248 0.0000 -10570.1459 1453.9950 0.0000 0.0000 1780.8428 -7324.4130 304.1442 -9105.2557 -7324.4130 304.1442 388.8183 477.9561 30210.2626 388.8183 477.9561
ENERGY: 300000 1.4932 11.4328 6.1574 0.0000 -10696.6229 1498.6707 0.0000 0.0000 1796.7275 -7382.1413 306.8571 -9178.8689 -7408.8587 301.9704 880.2133 937.4474 29837.5256 368.5093 453.3656
ENERGY: 600000 2.7478 7.4109 4.1088 0.0000 -10507.8182 1416.0980 0.0000 0.0000 1748.6267 -7328.8261 298.6421 -9077.4528 -7388.3754 304.6954 123.7813 231.6233 30153.8185 284.5256 366.2995
ENERGY: 900000 1.0814 13.5327 6.5974 0.0000 -10531.3592 1413.8658 0.0000 0.0000 1768.8764 -7327.4056 302.1005 -9096.2820 -7391.6682 303.8757 163.4230 229.9954 30288.5292 108.6646 184.7281
ENERGY: 1200000 1.6903 9.3813 4.6834 0.0000 -10594.9197 1399.7607 0.0000 0.0000 1744.6312 -7434.7728 297.9597 -9179.4040 -7398.0891 304.2040 -216.2873 -157.6526 30119.9078 124.6972 194.7207
ENERGY: 1500000 1.5504 10.1880 3.8698 0.0000 -10621.0333 1456.6933 0.0000 0.0000 1769.1132 -7379.6186 302.1409 -9148.7317 -7409.7640 302.3582 302.2481 426.0123 30176.8585 137.9341 210.2146
TCL: Running FEP window  12: Lambda1 0.4499999999999996 Lambda2 0.39999999999999963 [dLambda -0.04999999999999999]
TCL: Setting parameter firsttimestep to 0
TCL: Setting parameter alchLambda to 0.4499999999999996
Info: NONBONDED TABLE R-SQUARED SPACING: 0.0625
Info: NONBONDED TABLE SIZE: 705 POINTS
TCL: Setting parameter alchLambda2 to 0.39999999999999963
Info: NONBONDED TABLE R-SQUARED SPACING: 0.0625
Info: NONBONDED TABLE SIZE: 705 POINTS
TCL: Running for 1500000 steps
ETITLE: TS BOND ANGLE DIHED IMPRP ELECT VDW BOUNDARY MISC KINETIC TOTAL TEMP POTENTIAL TOTALAVG TEMPAVG PRESSURE GPRESSURE VOLUME PRESSAVG GPRESSAVG
ENERGY: 0 1.5505 10.1880 3.8698 0.0000 -10621.0341 1456.4162 0.0000 0.0000 1768.2430 -7380.7665 301.9923 -9149.0096 -7380.7665 301.9923 326.9656 419.1260 30176.8585 326.9656 419.1260
ENERGY: 300000 2.9269 10.6216 4.2631 0.0000 -10489.5968 1372.7929 0.0000 0.0000 1745.7609 -7353.2313 298.1527 -9098.9922 -7397.6572 298.3644 -290.0332 -282.7568 30660.0753 131.6435 212.1646
ENERGY: 600000 2.2354 5.1960 4.1595 0.0000 -10681.1316 1412.4260 0.0000 0.0000 1775.1287 -7481.9860 303.1683 -9257.1148 -7432.5147 301.2523 -336.7183 -275.7829 30304.7604 -15.8573 53.3329
ENERGY: 900000 2.2560 14.2967 5.6224 0.0000 -10781.4390 1483.3147 0.0000 0.0000 1775.4724 -7500.4768 303.2270 -9275.9491 -7431.5720 302.2626 230.4142 241.0065 30036.5019 43.7795 107.6833
ENERGY: 1200000 2.6310 9.1179 5.5843 0.0000 -10677.2973 1404.6343 0.0000 0.0000 1742.4308 -7512.8990 297.5839 -9255.3297 -7438.7723 302.7097 -22.5326 57.3732 29691.9738 60.6937 131.1188
ENERGY: 1500000 5.7440 12.6612 4.3948 0.0000 -10725.8170 1493.8633 0.0000 0.0000 1737.4501 -7471.7036 296.7333 -9209.1538 -7444.5274 301.2026 125.1537 173.2787 30368.0518 94.7305 165.5931
TCL: Running FEP window  13: Lambda1 0.39999999999999963 Lambda2 0.34999999999999964 [dLambda -0.04999999999999999]
TCL: Setting parameter firsttimestep to 0
TCL: Setting parameter alchLambda to 0.39999999999999963
Info: NONBONDED TABLE R-SQUARED SPACING: 0.0625
Info: NONBONDED TABLE SIZE: 705 POINTS
TCL: Setting parameter alchLambda2 to 0.34999999999999964
Info: NONBONDED TABLE R-SQUARED SPACING: 0.0625
Info: NONBONDED TABLE SIZE: 705 POINTS
TCL: Running for 1500000 steps
ETITLE: TS BOND ANGLE DIHED IMPRP ELECT VDW BOUNDARY MISC KINETIC TOTAL TEMP POTENTIAL TOTALAVG TEMPAVG PRESSURE GPRESSURE VOLUME PRESSAVG GPRESSAVG
ENERGY: 0 5.7440 12.6612 4.3948 0.0000 -10725.8163 1494.4450 0.0000 0.0000 1736.6100 -7471.9614 296.5898 -9208.5714 -7471.9614 296.5898 78.5933 167.1978 30368.0518 78.5933 167.1978
ENERGY: 300000 4.3737 5.1948 4.9176 0.0000 -10707.8896 1459.3668 0.0000 0.0000 1767.7358 -7466.3009 301.9057 -9234.0367 -7476.1435 298.4568 256.7365 343.6049 29827.8978 131.6371 211.8198
ENERGY: 600000 1.9171 13.9182 5.5993 0.0000 -10652.6012 1451.4619 0.0000 0.0000 1814.6188 -7365.0859 309.9127 -9179.7047 -7435.9767 302.5190 96.0496 157.8195 30176.5372 27.1407 98.8569
ENERGY: 900000 2.7423 10.1558 3.1249 0.0000 -10805.6243 1539.4014 0.0000 0.0000 1750.8620 -7499.3380 299.0239 -9250.2000 -7439.6166 300.9291 852.9423 899.1093 29946.0205 85.3007 164.0709
ENERGY: 1200000 2.8901 13.1663 5.8564 0.0000 -10698.8009 1449.1129 0.0000 0.0000 1692.6448 -7535.1305 289.0811 -9227.7753 -7451.2511 299.3930 -51.3475 -40.5116 30163.9981 72.7870 145.2768
ENERGY: 1500000 2.5045 12.8928 3.0469 0.0000 -10491.6778 1360.9469 0.0000 0.0000 1741.6713 -7370.6154 297.4542 -9112.2867 -7450.6989 298.4272 -311.2275 -227.6815 30001.6854 76.4178 144.0892
TCL: Running FEP window  14: Lambda1 0.34999999999999964 Lambda2 0.29999999999999966 [dLambda -0.04999999999999999]
TCL: Setting parameter firsttimestep to 0
TCL: Setting parameter alchLambda to 0.34999999999999964
Info: NONBONDED TABLE R-SQUARED SPACING: 0.0625
Info: NONBONDED TABLE SIZE: 705 POINTS
TCL: Setting parameter alchLambda2 to 0.29999999999999966
Info: NONBONDED TABLE R-SQUARED SPACING: 0.0625
Info: NONBONDED TABLE SIZE: 705 POINTS
TCL: Running for 1500000 steps
ETITLE: TS BOND ANGLE DIHED IMPRP ELECT VDW BOUNDARY MISC KINETIC TOTAL TEMP POTENTIAL TOTALAVG TEMPAVG PRESSURE GPRESSURE VOLUME PRESSAVG GPRESSAVG
ENERGY: 0 2.5045 12.8928 3.0469 0.0000 -10491.6788 1360.9795 0.0000 0.0000 1740.7861 -7371.4690 297.3030 -9112.2551 -7371.4690 297.3030 -307.9313 -233.6201 30001.6854 -307.9313 -233.6201
ENERGY: 300000 2.1310 9.2663 4.1133 0.0000 -10636.7185 1367.7116 0.0000 0.0000 1796.5193 -7456.9771 306.8215 -9253.4963 -7391.4501 303.7493 -535.3969 -451.8975 29966.1351 -257.4352 -190.8715
ENERGY: 600000 0.7125 10.6500 4.0666 0.0000 -10623.7438 1408.3464 0.0000 0.0000 1696.2839 -7503.6843 289.7027 -9199.9682 -7420.7282 298.2026 -148.7948 -12.5968 30031.2943 -208.2837 -139.9387
ENERGY: 900000 1.2347 12.6309 3.2025 0.0000 -10333.2356 1276.5758 0.0000 0.0000 1733.3399 -7306.2518 296.0313 -9039.5917 -7406.7793 298.4903 -855.7696 -752.1856 30157.6888 -343.7392 -280.4575
ENERGY: 1200000 2.4447 10.8513 4.9821 0.0000 -10701.1172 1399.8383 0.0000 0.0000 1846.5425 -7436.4583 315.3648 -9283.0008 -7414.1570 299.8822 -646.0717 -575.9938 30239.7692 -378.7660 -308.4385
ENERGY: 1500000 0.6793 7.4823 3.7552 0.0000 -10634.9273 1443.1898 0.0000 0.0000 1702.0258 -7477.7948 290.6833 -9179.8207 -7415.2016 299.2142 270.8072 372.5218 29875.6548 -244.2538 -175.9305
TCL: Running FEP window  15: Lambda1 0.29999999999999966 Lambda2 0.24999999999999967 [dLambda -0.04999999999999999]
TCL: Setting parameter firsttimestep to 0
TCL: Setting parameter alchLambda to 0.29999999999999966
Info: NONBONDED TABLE R-SQUARED SPACING: 0.0625
Info: NONBONDED TABLE SIZE: 705 POINTS
TCL: Setting parameter alchLambda2 to 0.24999999999999967
Info: NONBONDED TABLE R-SQUARED SPACING: 0.0625
Info: NONBONDED TABLE SIZE: 705 POINTS
TCL: Running for 1500000 steps
ETITLE: TS BOND ANGLE DIHED IMPRP ELECT VDW BOUNDARY MISC KINETIC TOTAL TEMP POTENTIAL TOTALAVG TEMPAVG PRESSURE GPRESSURE VOLUME PRESSAVG GPRESSAVG
ENERGY: 0 0.6793 7.4823 3.7552 0.0000 -10634.9270 1443.4539 0.0000 0.0000 1701.1158 -7478.4405 290.5279 -9179.5563 -7478.4405 290.5279 271.9789 368.3198 29875.6548 271.9789 368.3198
ENERGY: 300000 6.1487 14.3574 4.3580 0.0000 -10788.8902 1511.0514 0.0000 0.0000 1708.6003 -7544.3743 291.8061 -9252.9746 -7486.0648 296.3542 121.1478 176.8735 30330.0342 -43.9425 12.6235
ENERGY: 600000 3.6410 9.4959 4.0350 0.0000 -10593.0975 1397.9878 0.0000 0.0000 1812.7945 -7365.1433 309.6011 -9177.9378 -7456.1946 299.6364 -181.7496 -137.1911 30053.9368 38.6114 95.0344
ENERGY: 900000 2.7857 9.7615 8.8776 0.0000 -10600.4278 1322.4341 0.0000 0.0000 1738.9676 -7517.6012 296.9925 -9256.5688 -7452.6469 300.1207 -1310.0998 -1174.5174 30234.3867 -64.4845 5.1076
ENERGY: 1200000 2.6029 14.1874 7.4976 0.0000 -10634.9979 1465.2486 0.0000 0.0000 1724.1028 -7421.3586 294.4538 -9145.4614 -7453.0705 300.0975 369.4020 421.8007 30530.0455 -106.9589 -38.8608
ENERGY: 1500000 2.3630 14.5958 5.9962 0.0000 -10598.5404 1373.5937 0.0000 0.0000 1742.3084 -7459.6833 297.5630 -9201.9917 -7441.0516 300.3749 -333.1977 -324.2849 30124.5775 -166.1705 -103.1386
TCL: Running FEP window  16: Lambda1 0.24999999999999967 Lambda2 0.19999999999999968 [dLambda -0.04999999999999999]
TCL: Setting parameter firsttimestep to 0
TCL: Setting parameter alchLambda to 0.24999999999999967
Info: NONBONDED TABLE R-SQUARED SPACING: 0.0625
Info: NONBONDED TABLE SIZE: 705 POINTS
TCL: Setting parameter alchLambda2 to 0.19999999999999968
Info: NONBONDED TABLE R-SQUARED SPACING: 0.0625
Info: NONBONDED TABLE SIZE: 705 POINTS
TCL: Running for 1500000 steps
ETITLE: TS BOND ANGLE DIHED IMPRP ELECT VDW BOUNDARY MISC KINETIC TOTAL TEMP POTENTIAL TOTALAVG TEMPAVG PRESSURE GPRESSURE VOLUME PRESSAVG GPRESSAVG
ENERGY: 0 2.3630 14.5958 5.9962 0.0000 -10598.5407 1373.6765 0.0000 0.0000 1741.4627 -7460.4465 297.4186 -9201.9092 -7460.4465 297.4186 -409.5991 -328.7895 30124.5775 -409.5991 -328.7895
ENERGY: 300000 6.9380 9.4972 3.7812 0.0000 -10693.8145 1442.6106 0.0000 0.0000 1790.9854 -7440.0021 305.8764 -9230.9875 -7476.5324 298.1946 -200.6740 -159.9708 30247.9302 -246.9932 -182.0302
ENERGY: 600000 0.6635 6.5218 3.5640 0.0000 -10665.9975 1451.0633 0.0000 0.0000 1732.4628 -7471.7221 295.8815 -9204.1849 -7437.8992 300.0743 170.4110 223.7738 30150.8428 -310.0122 -234.6830
ENERGY: 900000 1.9272 7.3950 5.9527 0.0000 -10649.6846 1392.6291 0.0000 0.0000 1788.6738 -7453.1067 305.4816 -9241.7805 -7427.0815 302.1206 -525.3869 -481.4766 30176.8630 -297.4454 -235.0990
ENERGY: 1200000 1.8064 7.6739 4.7764 0.0000 -10586.8121 1439.7692 0.0000 0.0000 1778.9656 -7353.8206 303.8236 -9132.7862 -7427.5796 301.1435 228.4438 265.0376 30226.4042 -340.8025 -282.7780
ENERGY: 1500000 2.6774 10.2848 3.6937 0.0000 -10631.7438 1385.4025 0.0000 0.0000 1742.5137 -7487.1717 297.5981 -9229.6854 -7434.2948 300.2095 -417.3409 -381.3104 29965.6924 -342.1928 -281.4238
TCL: Running FEP window  17: Lambda1 0.19999999999999968 Lambda2 0.1499999999999997 [dLambda -0.04999999999999999]
TCL: Setting parameter firsttimestep to 0
TCL: Setting parameter alchLambda to 0.19999999999999968
Info: NONBONDED TABLE R-SQUARED SPACING: 0.0625
Info: NONBONDED TABLE SIZE: 705 POINTS
TCL: Setting parameter alchLambda2 to 0.1499999999999997
Info: NONBONDED TABLE R-SQUARED SPACING: 0.0625
Info: NONBONDED TABLE SIZE: 705 POINTS
TCL: Running for 1500000 steps
ETITLE: TS BOND ANGLE DIHED IMPRP ELECT VDW BOUNDARY MISC KINETIC TOTAL TEMP POTENTIAL TOTALAVG TEMPAVG PRESSURE GPRESSURE VOLUME PRESSAVG GPRESSAVG
ENERGY: 0 2.6774 10.2848 3.6937 0.0000 -10631.7442 1385.5959 0.0000 0.0000 1741.6329 -7487.8595 297.4477 -9229.4924 -7487.8595 297.4477 -478.1345 -385.0761 29965.6924 -478.1345 -385.0761
ENERGY: 300000 3.5560 12.2616 7.0333 0.0000 -10771.1417 1472.2899 0.0000 0.0000 1789.9034 -7486.0974 305.6916 -9276.0008 -7445.0260 300.4627 -90.5784 -28.9729 30199.5651 -56.5321 14.6236
ENERGY: 600000 1.6452 7.6305 3.5501 0.0000 -10846.9618 1503.2625 0.0000 0.0000 1681.0821 -7649.7914 287.1064 -9330.8735 -7470.7920 297.7243 146.5774 242.8223 29703.6658 -10.2622 57.9431
ENERGY: 900000 5.1022 7.6588 2.4509 0.0000 -10700.5369 1447.1534 0.0000 0.0000 1766.4706 -7471.7009 301.6896 -9238.1715 -7458.6027 299.3654 -123.0646 -65.9619 29903.0336 65.7549 128.0720
ENERGY: 1200000 2.2851 5.9898 3.1487 0.0000 -10617.6647 1423.8284 0.0000 0.0000 1714.0628 -7468.3499 292.7391 -9182.4128 -7456.4555 299.2677 -167.4868 -37.5315 30107.5169 85.0689 153.9833
ENERGY: 1500000 1.4926 11.5408 5.5980 0.0000 -10752.0284 1553.9500 0.0000 0.0000 1741.8396 -7437.6074 297.4830 -9179.4470 -7450.2201 299.1394 1184.0664 1208.8670 29766.5330 186.3989 251.4758
TCL: Running FEP window  18: Lambda1 0.1499999999999997 Lambda2 0.09999999999999969 [dLambda -0.05 ]
TCL: Setting parameter firsttimestep to 0
TCL: Setting parameter alchLambda to 0.1499999999999997
Info: NONBONDED TABLE R-SQUARED SPACING: 0.0625
Info: NONBONDED TABLE SIZE: 705 POINTS
TCL: Setting parameter alchLambda2 to 0.09999999999999969
Info: NONBONDED TABLE R-SQUARED SPACING: 0.0625
Info: NONBONDED TABLE SIZE: 705 POINTS
TCL: Running for 1500000 steps
ETITLE: TS BOND ANGLE DIHED IMPRP ELECT VDW BOUNDARY MISC KINETIC TOTAL TEMP POTENTIAL TOTALAVG TEMPAVG PRESSURE GPRESSURE VOLUME PRESSAVG GPRESSAVG
ENERGY: 0 1.4926 11.5408 5.5980 0.0000 -10752.0291 1553.8995 0.0000 0.0000 1740.9124 -7438.5858 297.3246 -9179.4982 -7438.5858 297.3246 1117.8394 1204.5471 29766.5330 1117.8394 1204.5471
ENERGY: 300000 3.0549 10.4549 4.1046 0.0000 -10702.0792 1472.6961 0.0000 0.0000 1671.0092 -7540.7595 285.3861 -9211.7687 -7459.9856 294.7200 236.8273 293.0247 29903.5523 185.7927 262.3260
ENERGY: 600000 1.7037 8.4817 3.9788 0.0000 -10635.9716 1480.4371 0.0000 0.0000 1776.0950 -7365.2753 303.3333 -9141.3703 -7429.4777 297.3017 391.2381 370.2876 30684.8815 72.8701 122.5774
ENERGY: 900000 2.2467 9.0785 4.9770 0.0000 -10577.1734 1382.3534 0.0000 0.0000 1750.5370 -7427.9809 298.9684 -9178.5179 -7428.6203 297.1462 -540.7284 -493.0283 30364.7931 0.9536 48.8692
ENERGY: 1200000 2.8953 4.5222 4.7696 0.0000 -10731.2803 1475.5764 0.0000 0.0000 1810.8778 -7432.6390 309.2738 -9243.5168 -7427.8768 298.5021 292.3179 354.4120 29784.7305 74.5170 116.8684
ENERGY: 1500000 3.2674 10.5083 2.5895 0.0000 -10705.9825 1446.6730 0.0000 0.0000 1757.4410 -7485.5034 300.1475 -9242.9444 -7430.9863 298.7967 133.3681 232.8289 29680.4503 46.8573 86.8865
TCL: Running FEP window  19: Lambda1 0.09999999999999969 Lambda2 0.049999999999999684 [dLambda -0.05 ]
TCL: Setting parameter firsttimestep to 0
TCL: Setting parameter alchLambda to 0.09999999999999969
Info: NONBONDED TABLE R-SQUARED SPACING: 0.0625
Info: NONBONDED TABLE SIZE: 705 POINTS
TCL: Setting parameter alchLambda2 to 0.049999999999999684
Info: NONBONDED TABLE R-SQUARED SPACING: 0.0625
Info: NONBONDED TABLE SIZE: 705 POINTS
TCL: Running for 1500000 steps
ETITLE: TS BOND ANGLE DIHED IMPRP ELECT VDW BOUNDARY MISC KINETIC TOTAL TEMP POTENTIAL TOTALAVG TEMPAVG PRESSURE GPRESSURE VOLUME PRESSAVG GPRESSAVG
ENERGY: 0 3.2673 10.5083 2.5895 0.0000 -10705.9824 1445.2169 0.0000 0.0000 1756.5500 -7487.8502 299.9953 -9244.4003 -7487.8502 299.9953 149.6885 225.9396 29680.4503 149.6885 225.9396
ENERGY: 300000 3.6394 10.0850 5.6704 0.0000 -10700.6132 1493.6973 0.0000 0.0000 1801.8532 -7385.6679 307.7325 -9187.5211 -7425.0645 303.7671 436.5087 411.5135 30269.2887 91.7815 148.0504
ENERGY: 600000 2.0765 9.1813 6.0734 0.0000 -10798.8218 1534.8253 0.0000 0.0000 1741.8007 -7504.8646 297.4763 -9246.6653 -7457.1543 302.3579 706.2717 788.0930 29929.6309 149.4431 216.1383
ENERGY: 900000 2.8385 12.2961 6.0642 0.0000 -10643.0454 1436.6382 0.0000 0.0000 1802.3957 -7382.8126 307.8251 -9185.2084 -7443.4805 302.6422 -57.0517 -51.6311 30257.3706 32.2590 92.5634
ENERGY: 1200000 0.8103 8.3425 3.2243 0.0000 -10653.4798 1445.4007 0.0000 0.0000 1747.3648 -7448.3372 298.4266 -9195.7019 -7442.4323 300.7537 -87.8940 -73.9652 30591.9683 12.4713 67.7861
ENERGY: 1500000 3.1446 6.8047 5.5674 0.0000 -10649.7854 1402.2422 0.0000 0.0000 1746.7263 -7485.3003 298.3176 -9232.0267 -7449.7929 300.5386 -365.0889 -373.7502 29885.7426 -9.0633 38.3965
TCL: Running FEP window  20: Lambda1 0.049999999999999684 Lambda2 0.0    [dLambda -0.049999999999999684]
TCL: Setting parameter firsttimestep to 0
TCL: Setting parameter alchLambda to 0.049999999999999684
Info: NONBONDED TABLE R-SQUARED SPACING: 0.0625
Info: NONBONDED TABLE SIZE: 705 POINTS
TCL: Setting parameter alchLambda2 to 0.0
Info: NONBONDED TABLE R-SQUARED SPACING: 0.0625
Info: NONBONDED TABLE SIZE: 705 POINTS
TCL: Running for 1500000 steps
ETITLE: TS BOND ANGLE DIHED IMPRP ELECT VDW BOUNDARY MISC KINETIC TOTAL TEMP POTENTIAL TOTALAVG TEMPAVG PRESSURE GPRESSURE VOLUME PRESSAVG GPRESSAVG
ENERGY: 0 3.1446 6.8046 5.5674 0.0000 -10649.7871 1400.7763 0.0000 0.0000 1745.8544 -7487.6398 298.1686 -9233.4942 -7487.6398 298.1686 -472.0043 -381.0787 29885.7426 -472.0043 -381.0787
ENERGY: 300000 0.7339 9.0099 3.4666 0.0000 -10467.1357 1367.6792 0.0000 0.0000 1743.2987 -7342.9474 297.7322 -9086.2460 -7413.9645 300.1973 -430.8225 -348.6175 30654.1039 -66.6805 31.1292
ENERGY: 600000 2.6970 16.0072 3.0257 0.0000 -10767.1881 1560.4754 0.0000 0.0000 1731.1606 -7453.8222 295.6591 -9184.9828 -7420.9533 298.7072 1138.3785 1197.6200 29734.6509 28.0326 112.3722
ENERGY: 900000 0.9614 12.5576 3.6349 0.0000 -10664.7416 1453.9287 0.0000 0.0000 1749.2842 -7444.3749 298.7544 -9193.6590 -7435.5918 299.8418 296.8743 361.3616 29807.3742 75.5723 151.5647
ENERGY: 1200000 3.0202 15.4685 5.7968 0.0000 -10498.5197 1325.5831 0.0000 0.0000 1750.7890 -7397.8620 299.0114 -9148.6510 -7437.6575 299.4192 -841.4715 -850.5423 30613.2013 55.0520 128.6681
ENERGY: 1500000 3.4254 8.6885 4.2774 0.0000 -10535.2280 1356.8252 0.0000 0.0000 1746.8143 -7415.1972 298.3326 -9162.0115 -7439.1328 299.0893 -825.6434 -814.4660 30562.1184 -57.2595 17.8797
TCL: Exiting due to exit command.
