Info: SIMULATION PARAMETERS:
Info: TIMESTEP               2
Info: NUMBER OF STEPS        0
Info: STEPS PER CYCLE        10
Info: PERIODIC CELL BASIS 1  33.053 0 0
Info: PERIODIC CELL BASIS 2  0 31.1388 0
Info: PERIODIC CELL BASIS 3  0 0 29.9106
Info: PERIODIC CELL CENTER   0 0 0
Info: WRAPPING WATERS AROUND PERIODIC BOUNDARIES ON OUTPUT.
Info: WRAPPING ALL CLUSTERS AROUND PERIODIC BOUNDARIES ON OUTPUT.
Info: FIRST LDB TIMESTEP     50
Info: LAST LDB TIMESTEP     -1
Info: HOM BACKGROUND SCALING 1
Info: PME BACKGROUND SCALING 1
Info: MIN ATOMS PER PATCH    40
Info: EMPTY PATCH LOAD       40 ATOMS
Info: VELOCITY FILE          mobley_6522117_equil.vel
Info: CENTER OF MASS MOVING INITIALLY? NO
Info: DIELECTRIC             1
Info: EXCLUDE                SCALED ONE-FOUR
Info: 1-4 ELECTROSTATICS SCALED BY 0.833333
Info: MODIFIED 1-4 VDW PARAMETERS WILL BE USED
Info: DCD FILENAME           mobley_6522117_prod.dcd
Info: DCD FREQUENCY          100000
Info: DCD FIRST STEP         100000
Info: DCD FILE WILL CONTAIN UNIT CELL DATA
Info: XST FILENAME           mobley_6522117_prod.xst
Info: XST FREQUENCY          100000
Info: NO VELOCITY DCD OUTPUT
Info: NO FORCE DCD OUTPUT
Info: OUTPUT FILENAME        mobley_6522117_prod
Info: BINARY OUTPUT FILES WILL BE USED
Info: RESTART FILENAME       mobley_6522117_prod.restart
Info: RESTART FREQUENCY      100000
Info: BINARY RESTART FILES WILL BE USED
Info: CUTOFF                 9
Info: PAIRLIST DISTANCE      11
Info: PAIRLIST SHRINK RATE   0.01
Info: PAIRLIST GROW RATE     0.01
Info: PAIRLIST TRIGGER       0.3
Info: PAIRLISTS PER CYCLE    2
Info: PAIRLISTS ENABLED
Info: MARGIN                 2
Info: HYDROGEN GROUP CUTOFF  2.5
Info: PATCH DIMENSION        15.5
Info: ENERGY OUTPUT STEPS    100000
Info: ENERGY EVALUATION STEPS    100000
Info: OUTPUT ENERGY PRECISION 4
Info: CROSSTERM ENERGY INCLUDED IN DIHEDRAL
Info: TIMING OUTPUT STEPS    1000000
Info: PRESSURE OUTPUT STEPS  100000
Info: ALCHEMICAL FEP ON
Info: FEP CURRENT LAMBDA VALUE     0
Info: FEP COMPARISON LAMBDA VALUE  0.05
Info: FEP INTRA-ALCHEMICAL NON-BONDED INTERACTIONS WILL BE RETAINED
Info: FEP INTRA-ALCHEMICAL BONDED INTERACTIONS WILL BE RETAINED
Info: FEP VDW SHIFTING COEFFICIENT 5
Info: FEP ELEC. ACTIVE FOR ANNIHILATED PARTICLES BETWEEN LAMBDA = 0 AND LAMBDA = 0.5
Info: FEP ELEC. ACTIVE FOR EXNIHILATED PARTICLES BETWEEN LAMBDA = 0.5 AND LAMBDA = 1
Info: FEP VDW ACTIVE FOR ANNIHILATED PARTICLES BETWEEN LAMBDA = 0 AND LAMBDA = 1
Info: FEP VDW ACTIVE FOR EXNIHILATED PARTICLES BETWEEN LAMBDA = 0 AND LAMBDA = 1
Info: FEP BOND ACTIVE FOR ANNIHILATED PARTICLES BETWEEN LAMBDA = 1 AND LAMBDA = 1
Info: FEP BOND ACTIVE FOR EXNIHILATED PARTICLES BETWEEN LAMBDA = 0 AND LAMBDA = 0
Info: LANGEVIN DYNAMICS ACTIVE
Info: LANGEVIN TEMPERATURE   300
Info: LANGEVIN USING BBK INTEGRATOR
Info: LANGEVIN DAMPING COEFFICIENT IS 1 INVERSE PS
Info: LANGEVIN DYNAMICS APPLIED TO HYDROGENS
Info: LANGEVIN PISTON PRESSURE CONTROL ACTIVE
Info:        TARGET PRESSURE IS 1.01325 BAR
Info:     OSCILLATION PERIOD IS 50 FS
Info:             DECAY TIME IS 25 FS
Info:     PISTON TEMPERATURE IS 300 K
Info:       PRESSURE CONTROL IS GROUP-BASED
Info:    INITIAL STRAIN RATE IS -0.000215328 -0.000215328 -0.000215328
Info:       CELL FLUCTUATION IS ISOTROPIC
Info: PARTICLE MESH EWALD (PME) ACTIVE
Info: PME TOLERANCE               1e-06
Info: PME EWALD COEFFICIENT       0.348832
Info: PME INTERPOLATION ORDER     4
Info: PME GRID DIMENSIONS         36 32 32
Info: PME MAXIMUM GRID SPACING    1
Info: PME CALCULATION WILL BE PERFORMED ON GPU
Info: FULL ELECTROSTATIC EVALUATION FREQUENCY      2
Info: USING VERLET I (r-RESPA) MTS SCHEME.
Info: C1 SPLITTING OF LONG RANGE ELECTROSTATICS
Info: PLACING ATOMS IN PATCHES BY HYDROGEN GROUPS
Info: RIGID BONDS TO HYDROGEN : ALL
Info:         ERROR TOLERANCE : 1e-08
Info:          MAX ITERATIONS : 100
Info: RIGID WATER USING SETTLE ALGORITHM
Info: RANDOM NUMBER SEED     1744085063
Info: USE HYDROGEN BONDS?    NO
Info: Using AMBER format force field!
Info: AMBER PARM FILE        mobley_6522117.prmtop
Info: COORDINATE PDB         mobley_6522117.pdb
Info: Exclusions will be read from PARM file!
Info: SCNB (VDW SCALING)     2
Info: USING ARITHMETIC MEAN TO COMBINE L-J SIGMA PARAMETERS
Info: BINARY COORDINATES     mobley_6522117_equil.coor
Info: SUMMARY OF PARAMETERS:
Info: 16 BONDS
Info: 20 ANGLES
Info:   20 HARMONIC
Info:   0 COSINE-BASED
Info: 15 DIHEDRAL
Info: 0 IMPROPER
Info: 0 CROSSTERM
Info: 0 VDW
Info: 78 VDW_PAIRS
Info: 0 NBTHOLE_PAIRS
Info: To read alchdata from file: mobley_6522117.pdb
Info: To read alchflag data from column: 5
Info: STRUCTURE SUMMARY:
Info: 2959 ATOMS
Info: 2959 BONDS
Info: 57 ANGLES
Info: 89 DIHEDRALS
Info: 0 IMPROPERS
Info: 0 CROSSTERMS
Info: 3080 EXCLUSIONS
Info: 2939 RIGID BONDS
Info: ALCH: 0 ATOMS TO DISAPPEAR IN FINAL STATE
Info: ALCH: 34 ATOMS TO APPEAR IN FINAL STATE
Info: 5938 DEGREES OF FREEDOM
Info: 995 HYDROGEN GROUPS
Info: 4 ATOMS IN LARGEST HYDROGEN GROUP
Info: 995 MIGRATION GROUPS
Info: 4 ATOMS IN LARGEST MIGRATION GROUP
Info: TOTAL MASS = 17925.2 amu
Info: TOTAL CHARGE = -0.000500076 e
Info: MASS DENSITY = 0.966909 g/cm^3
Info: ATOM DENSITY = 0.0961188 atoms/A^3
Info: ADDED 0 IMPLICIT EXCLUSIONS
Info: NONBONDED TABLE R-SQUARED SPACING: 0.0625
Info: NONBONDED TABLE SIZE: 705 POINTS
Info: REDUCING NUMBER OF PATCHES TO IMPROVE LOAD BALANCE
Info: REMOVING COM VELOCITY 0.0324383 0.0361832 -0.0735447
Info: Use 3D box decompostion in PME FFT.
Info: Updated CUDA force table with 4096 elements.
Info: Updated CUDA LJ table with 12 x 12 elements.
Info: Found 36 unique exclusion lists needing 160 bytes
TCL: Running for 1500000 steps
ETITLE: TS BOND ANGLE DIHED IMPRP ELECT VDW BOUNDARY MISC KINETIC TOTAL TEMP POTENTIAL TOTALAVG TEMPAVG PRESSURE GPRESSURE VOLUME PRESSAVG GPRESSAVG
ENERGY: 0 5.9607 12.2218 29.0182 0.0000 -10625.4208 1410.7456 0.0000 0.0000 1728.9416 -7438.5329 293.0424 -9167.4745 -7438.5329 293.0424 -75.3546 27.5198 30784.8255 -75.3546 27.5198
ENERGY: 300000 7.1159 11.5874 28.6608 0.0000 -10633.8586 1409.0321 0.0000 0.0000 1760.9549 -7416.5075 298.4684 -9177.4624 -7458.3918 296.6328 -168.9082 -112.8163 30468.5956 -122.5760 -70.2292
ENERGY: 600000 5.6217 15.8174 30.3852 0.0000 -10813.3868 1516.5193 0.0000 0.0000 1788.5358 -7456.5075 303.1432 -9245.0433 -7463.4441 299.2432 718.0002 859.0838 30140.6369 11.9959 90.5010
ENERGY: 900000 8.6527 15.7174 29.3510 0.0000 -10764.5589 1442.7880 0.0000 0.0000 1743.6613 -7524.3885 295.5373 -9268.0498 -7465.8108 299.2135 -345.1067 -249.9938 30388.9247 -152.5389 -77.8497
ENERGY: 1200000 8.2175 15.1802 21.6676 0.0000 -10630.7709 1417.9584 0.0000 0.0000 1726.0222 -7441.7249 292.5476 -9167.7471 -7476.6373 299.0268 104.0432 158.1217 30309.4832 -203.9656 -127.7041
ENERGY: 1500000 6.7572 9.7450 26.1196 0.0000 -10665.4423 1344.0814 0.0000 0.0000 1796.2029 -7482.5360 304.4427 -9278.7390 -7470.5592 300.2758 -540.6219 -479.7121 29947.8124 -174.1343 -103.1676
TCL: Running FEP window   2: Lambda1 0.05   Lambda2 0.1    [dLambda 0.05  ]
TCL: Setting parameter firsttimestep to 0
TCL: Setting parameter alchLambda to 0.05
Info: NONBONDED TABLE R-SQUARED SPACING: 0.0625
Info: NONBONDED TABLE SIZE: 705 POINTS
TCL: Setting parameter alchLambda2 to 0.1
Info: NONBONDED TABLE R-SQUARED SPACING: 0.0625
Info: NONBONDED TABLE SIZE: 705 POINTS
TCL: Running for 1500000 steps
ETITLE: TS BOND ANGLE DIHED IMPRP ELECT VDW BOUNDARY MISC KINETIC TOTAL TEMP POTENTIAL TOTALAVG TEMPAVG PRESSURE GPRESSURE VOLUME PRESSAVG GPRESSAVG
ENERGY: 0 6.7572 9.7450 26.1196 0.0000 -10665.4427 1351.8729 0.0000 0.0000 1795.3316 -7475.6163 304.2950 -9270.9479 -7475.6163 304.2950 -530.6845 -459.3968 29947.8124 -530.6845 -459.3968
ENERGY: 300000 6.5914 12.0037 24.9026 0.0000 -10723.5798 1397.7443 0.0000 0.0000 1771.9900 -7510.3478 300.3388 -9282.3378 -7520.7294 299.6070 -585.0457 -559.8232 30313.6796 -309.0546 -240.7196
ENERGY: 600000 7.2661 20.0491 29.5588 0.0000 -10846.0340 1474.1876 0.0000 0.0000 1819.7085 -7495.2640 308.4267 -9314.9725 -7509.0993 300.0760 306.4874 356.6681 29880.5847 -286.6449 -226.8416
ENERGY: 900000 9.8185 13.1045 29.7651 0.0000 -10560.9950 1321.1370 0.0000 0.0000 1786.0386 -7401.1313 302.7199 -9187.1699 -7504.8488 299.3471 -980.5150 -922.6750 30325.0036 -303.7640 -246.0010
ENERGY: 1200000 4.8444 23.2299 27.2111 0.0000 -10748.5454 1435.7303 0.0000 0.0000 1810.0295 -7447.5002 306.7862 -9257.5297 -7498.6620 300.4100 -51.2989 59.4476 29935.0680 -255.8295 -200.8621
ENERGY: 1500000 5.4472 11.9167 26.9640 0.0000 -10569.2087 1324.5718 0.0000 0.0000 1755.9481 -7444.3608 297.6198 -9200.3089 -7492.0955 300.4048 -922.8424 -904.5847 30728.8850 -313.4591 -256.2714
TCL: Running FEP window   3: Lambda1 0.1    Lambda2 0.15000000000000002 [dLambda 0.05000000000000002]
TCL: Setting parameter firsttimestep to 0
TCL: Setting parameter alchLambda to 0.1
Info: NONBONDED TABLE R-SQUARED SPACING: 0.0625
Info: NONBONDED TABLE SIZE: 705 POINTS
TCL: Setting parameter alchLambda2 to 0.15000000000000002
Info: NONBONDED TABLE R-SQUARED SPACING: 0.0625
Info: NONBONDED TABLE SIZE: 705 POINTS
TCL: Running for 1500000 steps
ETITLE: TS BOND ANGLE DIHED IMPRP ELECT VDW BOUNDARY MISC KINETIC TOTAL TEMP POTENTIAL TOTALAVG TEMPAVG PRESSURE GPRESSURE VOLUME PRESSAVG GPRESSAVG
ENERGY: 0 5.4472 11.9167 26.9640 0.0000 -10569.2091 1327.3805 0.0000 0.0000 1755.0834 -7442.4172 297.4733 -9197.5007 -7442.4172 297.4733 -973.6749 -884.2863 30728.8850 -973.6749 -884.2863
ENERGY: 300000 8.5739 23.6089 26.8971 0.0000 -10840.6947 1446.2860 0.0000 0.0000 1765.0687 -7570.2602 299.1657 -9335.3289 -7512.5265 298.9854 -394.3183 -424.7456 30252.0763 -655.1749 -627.3587
ENERGY: 600000 6.2723 11.6712 27.4970 0.0000 -10583.8059 1383.1354 0.0000 0.0000 1750.9508 -7404.2793 296.7728 -9155.2301 -7491.8840 298.2765 -300.1682 -233.1083 30567.8736 -387.1059 -346.6075
ENERGY: 900000 5.4845 15.5366 27.5631 0.0000 -10791.5421 1492.6668 0.0000 0.0000 1726.4214 -7523.8698 292.6153 -9250.2911 -7501.7912 297.0134 448.2414 488.4079 30355.8982 -332.1365 -280.8001
ENERGY: 1200000 7.4837 16.3883 23.6696 0.0000 -10783.1778 1422.4907 0.0000 0.0000 1788.5834 -7524.5621 303.1513 -9313.1455 -7511.3007 296.6977 -525.7518 -454.0633 30551.5750 -294.6288 -241.9441
ENERGY: 1500000 5.7235 13.5356 25.4624 0.0000 -10794.1125 1457.4220 0.0000 0.0000 1796.7606 -7495.2084 304.5372 -9291.9690 -7505.0259 298.0092 -188.2741 -114.2214 30285.6782 -278.2125 -217.5124
TCL: Running FEP window   4: Lambda1 0.15000000000000002 Lambda2 0.2    [dLambda 0.04999999999999999]
TCL: Setting parameter firsttimestep to 0
TCL: Setting parameter alchLambda to 0.15000000000000002
Info: NONBONDED TABLE R-SQUARED SPACING: 0.0625
Info: NONBONDED TABLE SIZE: 705 POINTS
TCL: Setting parameter alchLambda2 to 0.2
Info: NONBONDED TABLE R-SQUARED SPACING: 0.0625
Info: NONBONDED TABLE SIZE: 705 POINTS
TCL: Running for 1500000 steps
ETITLE: TS BOND ANGLE DIHED IMPRP ELECT VDW BOUNDARY MISC KINETIC TOTAL TEMP POTENTIAL TOTALAVG TEMPAVG PRESSURE GPRESSURE VOLUME PRESSAVG GPRESSAVG
ENERGY: 0 5.7235 13.5356 25.4624 0.0000 -10794.1118 1461.5056 0.0000 0.0000 1795.8619 -7492.0229 304.3849 -9287.8847 -7492.0229 304.3849 -180.7507 -91.9962 30285.6782 -180.7507 -91.9962
ENERGY: 300000 7.4035 15.2662 26.9045 0.0000 -10680.6666 1460.2808 0.0000 0.0000 1812.9596 -7357.8520 307.2828 -9170.8116 -7429.6599 305.4672 521.8955 578.3820 30134.4683 129.4406 181.2795
ENERGY: 600000 5.4539 14.5463 32.0087 0.0000 -10741.0815 1455.1132 0.0000 0.0000 1753.4376 -7480.5218 297.1943 -9233.9594 -7456.9248 300.7192 341.9629 441.7561 30045.4665 193.0697 248.8826
ENERGY: 900000 10.9537 16.0619 27.2340 0.0000 -10620.3822 1377.6342 0.0000 0.0000 1745.1943 -7443.3039 295.7971 -9188.4982 -7477.5921 300.7080 -427.2671 -355.4051 30345.8180 159.4642 210.1849
ENERGY: 1200000 8.4694 14.9707 25.7503 0.0000 -10763.7668 1448.3211 0.0000 0.0000 1788.8473 -7477.4079 303.1960 -9266.2552 -7480.0652 300.5080 -296.1478 -242.9734 30442.3022 165.9012 218.2356
ENERGY: 1500000 8.3067 13.3728 35.7276 0.0000 -10732.3551 1428.6802 0.0000 0.0000 1748.4587 -7497.8091 296.3504 -9246.2678 -7477.2524 299.7140 -385.1219 -260.5573 30418.4663 176.5986 234.6690
TCL: Running FEP window   5: Lambda1 0.2    Lambda2 0.25   [dLambda 0.04999999999999999]
TCL: Setting parameter firsttimestep to 0
TCL: Setting parameter alchLambda to 0.2
Info: NONBONDED TABLE R-SQUARED SPACING: 0.0625
Info: NONBONDED TABLE SIZE: 705 POINTS
TCL: Setting parameter alchLambda2 to 0.25
Info: NONBONDED TABLE R-SQUARED SPACING: 0.0625
Info: NONBONDED TABLE SIZE: 705 POINTS
TCL: Running for 1500000 steps
ETITLE: TS BOND ANGLE DIHED IMPRP ELECT VDW BOUNDARY MISC KINETIC TOTAL TEMP POTENTIAL TOTALAVG TEMPAVG PRESSURE GPRESSURE VOLUME PRESSAVG GPRESSAVG
ENERGY: 0 8.3067 13.3728 35.7276 0.0000 -10732.3562 1430.7850 0.0000 0.0000 1747.5498 -7496.6144 296.1964 -9244.1642 -7496.6144 296.1964 -329.5982 -240.2469 30418.4663 -329.5982 -240.2469
ENERGY: 300000 4.0540 12.9998 27.3968 0.0000 -10726.1384 1430.8432 0.0000 0.0000 1758.4257 -7492.4189 298.0398 -9250.8446 -7506.2928 296.2828 -272.4681 -200.5662 30505.5180 -339.7763 -266.1335
ENERGY: 600000 5.1960 12.2660 32.5928 0.0000 -10712.8741 1432.5456 0.0000 0.0000 1747.3855 -7482.8882 296.1685 -9230.2737 -7493.4839 297.6104 103.1542 197.7160 30251.7184 -50.8740 31.3788
ENERGY: 900000 4.6786 13.5188 27.9559 0.0000 -10567.2456 1382.9359 0.0000 0.0000 1809.0453 -7329.1112 306.6194 -9138.1565 -7467.8612 300.1570 -293.2736 -248.9455 30333.7898 47.1336 116.2531
ENERGY: 1200000 3.5647 12.6295 27.9238 0.0000 -10736.7321 1479.2348 0.0000 0.0000 1813.2834 -7400.0960 307.3377 -9213.3793 -7470.7887 301.2350 253.2667 329.6534 30578.0560 29.5523 102.0461
ENERGY: 1500000 4.4519 17.0872 24.2347 0.0000 -10653.3567 1398.7984 0.0000 0.0000 1755.2163 -7453.5683 297.4958 -9208.7845 -7470.8740 300.4945 -287.8411 -259.9784 30325.4658 11.8470 76.2669
TCL: Running FEP window   6: Lambda1 0.25   Lambda2 0.3    [dLambda 0.04999999999999999]
TCL: Setting parameter firsttimestep to 0
TCL: Setting parameter alchLambda to 0.25
Info: NONBONDED TABLE R-SQUARED SPACING: 0.0625
Info: NONBONDED TABLE SIZE: 705 POINTS
TCL: Setting parameter alchLambda2 to 0.3
Info: NONBONDED TABLE R-SQUARED SPACING: 0.0625
Info: NONBONDED TABLE SIZE: 705 POINTS
TCL: Running for 1500000 steps
ETITLE: TS BOND ANGLE DIHED IMPRP ELECT VDW BOUNDARY MISC KINETIC TOTAL TEMP POTENTIAL TOTALAVG TEMPAVG PRESSURE GPRESSURE VOLUME PRESSAVG GPRESSAVG
ENERGY: 0 4.4519 17.0872 24.2347 0.0000 -10653.3562 1399.6616 0.0000 0.0000 1754.3258 -7453.5949 297.3449 -9207.9207 -7453.5949 297.3449 -330.3871 -251.0040 30325.4658 -330.3871 -251.0040
ENERGY: 300000 7.7988 10.9532 29.4597 0.0000 -10697.6329 1405.6381 0.0000 0.0000 1748.0683 -7495.7149 296.2843 -9243.7832 -7491.5625 297.4961 -469.9914 -384.2864 30549.5570 -74.3692 3.1534
ENERGY: 600000 7.0990 13.9268 26.2819 0.0000 -10719.4652 1369.7347 0.0000 0.0000 1708.5964 -7593.8264 289.5941 -9302.4228 -7516.3391 296.6354 -710.8984 -661.9278 30125.1015 -165.3628 -88.6474
ENERGY: 900000 4.8996 15.4429 21.5677 0.0000 -10564.7797 1366.6295 0.0000 0.0000 1698.4140 -7457.8260 287.8682 -9156.2400 -7514.3536 296.7201 -182.6436 -155.1052 30186.4252 -200.6261 -139.9852
ENERGY: 1200000 3.9728 7.6213 27.2879 0.0000 -10665.3966 1332.7951 0.0000 0.0000 1775.5495 -7518.1700 300.9421 -9293.7195 -7512.4824 297.6335 -784.7075 -694.0291 30386.7046 -292.8912 -222.6675
ENERGY: 1500000 5.6551 11.5131 26.5043 0.0000 -10500.2095 1337.6318 0.0000 0.0000 1772.5746 -7346.3306 300.4379 -9118.9052 -7494.0023 297.9679 -614.9356 -514.8848 30982.1790 -178.0221 -105.1250
TCL: Running FEP window   7: Lambda1 0.3    Lambda2 0.35   [dLambda 0.04999999999999999]
TCL: Setting parameter firsttimestep to 0
TCL: Setting parameter alchLambda to 0.3
Info: NONBONDED TABLE R-SQUARED SPACING: 0.0625
Info: NONBONDED TABLE SIZE: 705 POINTS
TCL: Setting parameter alchLambda2 to 0.35
Info: NONBONDED TABLE R-SQUARED SPACING: 0.0625
Info: NONBONDED TABLE SIZE: 705 POINTS
TCL: Running for 1500000 steps
ETITLE: TS BOND ANGLE DIHED IMPRP ELECT VDW BOUNDARY MISC KINETIC TOTAL TEMP POTENTIAL TOTALAVG TEMPAVG PRESSURE GPRESSURE VOLUME PRESSAVG GPRESSAVG
ENERGY: 0 5.6551 11.5131 26.5043 0.0000 -10500.2082 1339.1271 0.0000 0.0000 1771.6895 -7345.7190 300.2879 -9117.4085 -7345.7190 300.2879 -576.9612 -496.9302 30982.1790 -576.9612 -496.9302
ENERGY: 300000 7.0705 12.2128 23.6133 0.0000 -10756.0798 1492.0045 0.0000 0.0000 1773.2069 -7447.9717 300.5451 -9221.1786 -7430.3906 300.3213 363.5391 384.3584 30281.2165 173.2539 203.9611
ENERGY: 600000 6.3509 16.4359 26.5247 0.0000 -10698.2099 1406.1938 0.0000 0.0000 1718.2185 -7524.4861 291.2250 -9242.7046 -7459.2740 299.6517 -413.9492 -314.9638 30329.9584 54.1869 110.2249
ENERGY: 900000 7.1051 12.7958 27.3500 0.0000 -10660.1616 1381.4259 0.0000 0.0000 1774.0905 -7457.3943 300.6948 -9231.4847 -7465.9942 299.6937 -620.4759 -553.2499 30578.2176 60.8216 120.2078
ENERGY: 1200000 3.4724 17.3278 29.8198 0.0000 -10760.1560 1436.5990 0.0000 0.0000 1782.2988 -7490.6382 302.0861 -9272.9370 -7479.5146 299.3486 18.1009 77.3757 30291.1700 -59.5798 -2.3913
ENERGY: 1500000 5.7319 16.5182 23.6955 0.0000 -10678.3803 1348.9246 0.0000 0.0000 1710.3321 -7573.1781 289.8883 -9283.5101 -7488.1086 297.8885 -765.2590 -720.7996 30151.0839 -112.1154 -55.0375
TCL: Running FEP window   8: Lambda1 0.35   Lambda2 0.39999999999999997 [dLambda 0.04999999999999999]
TCL: Setting parameter firsttimestep to 0
TCL: Setting parameter alchLambda to 0.35
Info: NONBONDED TABLE R-SQUARED SPACING: 0.0625
Info: NONBONDED TABLE SIZE: 705 POINTS
TCL: Setting parameter alchLambda2 to 0.39999999999999997
Info: NONBONDED TABLE R-SQUARED SPACING: 0.0625
Info: NONBONDED TABLE SIZE: 705 POINTS
TCL: Running for 1500000 steps
ETITLE: TS BOND ANGLE DIHED IMPRP ELECT VDW BOUNDARY MISC KINETIC TOTAL TEMP POTENTIAL TOTALAVG TEMPAVG PRESSURE GPRESSURE VOLUME PRESSAVG GPRESSAVG
ENERGY: 0 5.7319 16.5182 23.6955 0.0000 -10678.3792 1350.1114 0.0000 0.0000 1709.4750 -7572.8472 289.7430 -9282.3222 -7572.8472 289.7430 -778.1241 -701.9418 30151.0839 -778.1241 -701.9418
ENERGY: 300000 9.4639 27.5551 25.4319 0.0000 -10728.3869 1392.9562 0.0000 0.0000 1752.2478 -7520.7319 296.9927 -9272.9797 -7499.0760 296.9005 -679.0084 -671.5950 30406.9694 -249.0100 -176.8320
ENERGY: 600000 4.9480 10.8036 27.1162 0.0000 -10630.1906 1401.0051 0.0000 0.0000 1772.8694 -7413.4481 300.4879 -9186.3176 -7485.9989 297.9048 -41.3253 -51.6206 30686.6261 -269.8161 -201.2039
ENERGY: 900000 7.6948 9.5929 30.4361 0.0000 -10720.8708 1460.7002 0.0000 0.0000 1783.5885 -7428.8582 302.3047 -9212.4467 -7461.4930 299.6999 262.0717 375.6202 30363.9547 -121.6049 -50.4623
ENERGY: 1200000 4.2856 12.8477 23.2370 0.0000 -10786.0572 1440.7398 0.0000 0.0000 1791.5268 -7513.4204 303.6501 -9304.9471 -7463.0756 300.2398 -101.0047 -7.0469 30269.6136 -157.9771 -84.9262
ENERGY: 1500000 9.0651 11.6202 26.2643 0.0000 -10636.9565 1418.5536 0.0000 0.0000 1741.2510 -7430.2023 295.1288 -9171.4533 -7459.9147 299.5595 288.2288 328.9522 30158.8182 -78.0534 -10.4261
TCL: Running FEP window   9: Lambda1 0.39999999999999997 Lambda2 0.44999999999999996 [dLambda 0.04999999999999999]
TCL: Setting parameter firsttimestep to 0
TCL: Setting parameter alchLambda to 0.39999999999999997
Info: NONBONDED TABLE R-SQUARED SPACING: 0.0625
Info: NONBONDED TABLE SIZE: 705 POINTS
TCL: Setting parameter alchLambda2 to 0.44999999999999996
Info: NONBONDED TABLE R-SQUARED SPACING: 0.0625
Info: NONBONDED TABLE SIZE: 705 POINTS
TCL: Running for 1500000 steps
ETITLE: TS BOND ANGLE DIHED IMPRP ELECT VDW BOUNDARY MISC KINETIC TOTAL TEMP POTENTIAL TOTALAVG TEMPAVG PRESSURE GPRESSURE VOLUME PRESSAVG GPRESSAVG
ENERGY: 0 9.0651 11.6202 26.2643 0.0000 -10636.9571 1419.7091 0.0000 0.0000 1740.3810 -7429.9174 294.9813 -9170.2984 -7429.9174 294.9813 272.3862 346.6304 30158.8182 272.3862 346.6304
ENERGY: 300000 4.8830 11.1698 26.3177 0.0000 -10737.4190 1394.7621 0.0000 0.0000 1796.8098 -7503.4766 304.5456 -9300.2864 -7479.0622 299.9865 -396.7370 -258.7286 30233.9650 -207.9873 -155.3841
ENERGY: 600000 6.0328 7.0265 28.1359 0.0000 -10591.3736 1320.2322 0.0000 0.0000 1785.5678 -7444.3783 302.6401 -9229.9461 -7480.6724 300.3659 -695.7461 -646.2959 30223.3999 -352.7308 -290.2423
ENERGY: 900000 4.9593 11.0749 30.6942 0.0000 -10693.7427 1395.6576 0.0000 0.0000 1780.3858 -7470.9709 301.7618 -9251.3568 -7462.6579 301.0844 -103.5384 -37.4843 30436.4108 -386.0529 -329.7325
ENERGY: 1200000 8.2327 12.3888 28.2918 0.0000 -10793.9674 1471.8176 0.0000 0.0000 1701.8084 -7571.4281 288.4436 -9273.2364 -7469.9260 300.5112 515.3716 566.7465 30202.8273 -292.6015 -247.5059
ENERGY: 1500000 5.5280 14.6132 30.5396 0.0000 -10698.1581 1427.0468 0.0000 0.0000 1798.9715 -7421.4591 304.9120 -9220.4305 -7466.4012 300.5841 153.2576 199.0139 30383.3741 -225.4167 -179.8095
TCL: Running FEP window  10: Lambda1 0.44999999999999996 Lambda2 0.49999999999999994 [dLambda 0.04999999999999999]
TCL: Setting parameter firsttimestep to 0
TCL: Setting parameter alchLambda to 0.44999999999999996
Info: NONBONDED TABLE R-SQUARED SPACING: 0.0625
Info: NONBONDED TABLE SIZE: 705 POINTS
TCL: Setting parameter alchLambda2 to 0.49999999999999994
Info: NONBONDED TABLE R-SQUARED SPACING: 0.0625
Info: NONBONDED TABLE SIZE: 705 POINTS
TCL: Running for 1500000 steps
ETITLE: TS BOND ANGLE DIHED IMPRP ELECT VDW BOUNDARY MISC KINETIC TOTAL TEMP POTENTIAL TOTALAVG TEMPAVG PRESSURE GPRESSURE VOLUME PRESSAVG GPRESSAVG
ENERGY: 0 5.5280 14.6132 30.5396 0.0000 -10698.1576 1426.7086 0.0000 0.0000 1798.1377 -7422.6305 304.7706 -9220.7682 -7422.6305 304.7706 112.3171 205.8314 30383.3741 112.3171 205.8314
ENERGY: 300000 8.7580 17.3536 26.3599 0.0000 -10624.7312 1366.7248 0.0000 0.0000 1701.6685 -7503.8664 288.4199 -9205.5349 -7464.2120 298.8747 -289.6187 -223.6134 30376.8889 -225.2261 -160.5899
ENERGY: 600000 5.2544 12.5946 24.6926 0.0000 -10770.8639 1433.8478 0.0000 0.0000 1750.5467 -7543.9279 296.7043 -9294.4746 -7488.2859 298.9274 -119.4356 -54.0798 30515.4490 -200.8068 -131.8964
ENERGY: 900000 4.1359 11.1568 31.4491 0.0000 -10758.3517 1456.7369 0.0000 0.0000 1791.2939 -7463.5791 303.6107 -9254.8730 -7488.3714 299.6336 266.6576 305.1863 30288.9174 -211.0075 -152.1883
ENERGY: 1200000 7.7690 17.4008 27.9312 0.0000 -10676.9586 1402.8354 0.0000 0.0000 1741.0663 -7479.9560 295.0975 -9221.0223 -7485.0714 299.4509 -113.9928 -42.1880 30395.8741 -290.4573 -229.5925
ENERGY: 1500000 5.2833 12.4269 28.7415 0.0000 -10834.0911 1491.5018 0.0000 0.0000 1853.8685 -7442.2692 314.2166 -9296.1377 -7485.0545 299.8445 446.1146 494.9624 30234.1036 -274.1331 -210.9926
TCL: Running FEP window  11: Lambda1 0.49999999999999994 Lambda2 0.5499999999999999 [dLambda 0.04999999999999999]
TCL: Setting parameter firsttimestep to 0
TCL: Setting parameter alchLambda to 0.49999999999999994
Info: NONBONDED TABLE R-SQUARED SPACING: 0.0625
Info: NONBONDED TABLE SIZE: 705 POINTS
TCL: Setting parameter alchLambda2 to 0.5499999999999999
Info: NONBONDED TABLE R-SQUARED SPACING: 0.0625
Info: NONBONDED TABLE SIZE: 705 POINTS
TCL: Running for 1500000 steps
ETITLE: TS BOND ANGLE DIHED IMPRP ELECT VDW BOUNDARY MISC KINETIC TOTAL TEMP POTENTIAL TOTALAVG TEMPAVG PRESSURE GPRESSURE VOLUME PRESSAVG GPRESSAVG
ENERGY: 0 5.2833 12.4269 28.7415 0.0000 -10834.0911 1491.5129 0.0000 0.0000 1852.9878 -7443.1387 314.0673 -9296.1264 -7443.1387 314.0673 417.2611 507.7344 30234.1036 417.2611 507.7344
ENERGY: 300000 5.0584 12.9009 29.0350 0.0000 -10700.9726 1378.8670 0.0000 0.0000 1759.2341 -7515.8773 298.1768 -9275.1115 -7509.2965 300.1818 -406.2219 -322.0197 30408.5102 75.3747 155.4943
ENERGY: 600000 7.2400 14.6565 25.2794 0.0000 -10610.8064 1406.0147 0.0000 0.0000 1764.2194 -7393.3963 299.0218 -9157.6157 -7473.6270 301.5042 97.9609 169.0662 30189.4730 -85.9958 8.7775
ENERGY: 900000 6.6638 9.3647 27.9728 0.0000 -10808.0585 1478.8117 0.0000 0.0000 1817.7464 -7467.4990 308.0942 -9285.2454 -7472.2290 303.2770 509.4079 603.5248 30053.3899 -82.0620 -3.4600
ENERGY: 1200000 3.9157 15.6777 24.5206 0.0000 -10498.1701 1310.5629 0.0000 0.0000 1772.6843 -7370.8089 300.4565 -9143.4932 -7468.2887 302.3197 -477.0618 -393.4203 29925.6389 -142.6520 -64.2871
ENERGY: 1500000 10.1741 9.4847 25.8997 0.0000 -10602.9512 1348.1034 0.0000 0.0000 1744.4596 -7464.8297 295.6726 -9209.2893 -7475.8702 301.7409 -511.7851 -455.6822 30756.5527 -176.5214 -93.3525
TCL: Running FEP window  12: Lambda1 0.5499999999999999 Lambda2 0.6    [dLambda 0.050000000000000044]
TCL: Setting parameter firsttimestep to 0
TCL: Setting parameter alchLambda to 0.5499999999999999
Info: NONBONDED TABLE R-SQUARED SPACING: 0.0625
Info: NONBONDED TABLE SIZE: 705 POINTS
TCL: Setting parameter alchLambda2 to 0.6
Info: NONBONDED TABLE R-SQUARED SPACING: 0.0625
Info: NONBONDED TABLE SIZE: 705 POINTS
TCL: Running for 1500000 steps
ETITLE: TS BOND ANGLE DIHED IMPRP ELECT VDW BOUNDARY MISC KINETIC TOTAL TEMP POTENTIAL TOTALAVG TEMPAVG PRESSURE GPRESSURE VOLUME PRESSAVG GPRESSAVG
ENERGY: 0 10.1741 9.4847 25.8997 0.0000 -10601.8794 1347.9755 0.0000 0.0000 1743.5683 -7464.7772 295.5215 -9208.3454 -7464.7772 295.5215 -518.3137 -442.0848 30756.5527 -518.3137 -442.0848
ENERGY: 300000 6.7363 11.7302 26.8188 0.0000 -10658.8266 1359.8053 0.0000 0.0000 1753.2963 -7500.4396 297.1704 -9253.7359 -7486.7744 295.2879 -752.2985 -672.7101 30524.7229 -324.2395 -244.6102
ENERGY: 600000 8.5725 12.1891 24.9761 0.0000 -10632.3853 1329.5321 0.0000 0.0000 1733.0876 -7524.0279 293.7452 -9257.1155 -7476.3432 296.0782 -1055.8475 -1007.9501 30862.0855 -305.4876 -220.5883
ENERGY: 900000 11.8596 16.1857 23.9442 0.0000 -10601.1632 1369.9476 0.0000 0.0000 1745.3135 -7433.9126 295.8173 -9179.2261 -7463.6889 297.9284 -135.6851 -38.2797 30477.3067 -354.7311 -288.7197
ENERGY: 1200000 5.0201 10.9974 29.2164 0.0000 -11005.9497 1617.6050 0.0000 0.0000 1761.3266 -7581.7841 298.5314 -9343.1107 -7477.0780 298.1199 1638.1997 1651.9670 29745.4896 -85.8741 -21.1833
ENERGY: 1500000 8.1247 18.1400 32.1591 0.0000 -10829.9237 1512.3299 0.0000 0.0000 1683.8251 -7575.3449 285.3955 -9259.1700 -7476.2735 298.4257 638.9696 645.6634 30501.0234 22.7137 83.9071
TCL: Running FEP window  13: Lambda1 0.6    Lambda2 0.65   [dLambda 0.050000000000000044]
TCL: Setting parameter firsttimestep to 0
TCL: Setting parameter alchLambda to 0.6
Info: NONBONDED TABLE R-SQUARED SPACING: 0.0625
Info: NONBONDED TABLE SIZE: 705 POINTS
TCL: Setting parameter alchLambda2 to 0.65
Info: NONBONDED TABLE R-SQUARED SPACING: 0.0625
Info: NONBONDED TABLE SIZE: 705 POINTS
TCL: Running for 1500000 steps
ETITLE: TS BOND ANGLE DIHED IMPRP ELECT VDW BOUNDARY MISC KINETIC TOTAL TEMP POTENTIAL TOTALAVG TEMPAVG PRESSURE GPRESSURE VOLUME PRESSAVG GPRESSAVG
ENERGY: 0 8.1248 18.1400 32.1591 0.0000 -10831.2162 1512.5974 0.0000 0.0000 1682.9950 -7577.2000 285.2548 -9260.1950 -7577.2000 285.2548 571.1561 662.6607 30501.0234 571.1561 662.6607
ENERGY: 300000 6.8879 15.1609 27.3137 0.0000 -10659.1327 1372.3629 0.0000 0.0000 1764.0381 -7473.3692 298.9910 -9237.4073 -7461.5284 298.1544 -540.8673 -489.1715 30816.0457 -71.2805 14.6678
ENERGY: 600000 10.3560 14.5778 24.5267 0.0000 -10679.3754 1389.5987 0.0000 0.0000 1687.7270 -7552.5893 286.0569 -9240.3163 -7479.0387 296.2657 -480.8120 -446.9104 30293.3469 -179.0432 -98.9733
ENERGY: 900000 10.5069 11.9844 25.6052 0.0000 -10822.0121 1542.1464 0.0000 0.0000 1745.5947 -7486.1744 295.8650 -9231.7692 -7480.2262 296.8303 1013.4206 1013.4957 30562.6675 -189.7852 -123.1705
ENERGY: 1200000 6.9543 11.6130 23.9162 0.0000 -10660.5827 1446.3337 0.0000 0.0000 1779.0046 -7392.7609 301.5277 -9171.7655 -7474.5014 297.9943 769.8810 770.9290 29940.9193 -58.3933 3.8564
ENERGY: 1500000 4.1535 10.4859 27.4076 0.0000 -10689.0666 1350.2339 0.0000 0.0000 1734.3197 -7562.4660 293.9540 -9296.7857 -7496.9807 297.0167 -794.4684 -784.2734 30809.1518 -86.7524 -26.5316
TCL: Running FEP window  14: Lambda1 0.65   Lambda2 0.7000000000000001 [dLambda 0.050000000000000044]
TCL: Setting parameter firsttimestep to 0
TCL: Setting parameter alchLambda to 0.65
Info: NONBONDED TABLE R-SQUARED SPACING: 0.0625
Info: NONBONDED TABLE SIZE: 705 POINTS
TCL: Setting parameter alchLambda2 to 0.7000000000000001
Info: NONBONDED TABLE R-SQUARED SPACING: 0.0625
Info: NONBONDED TABLE SIZE: 705 POINTS
TCL: Running for 1500000 steps
ETITLE: TS BOND ANGLE DIHED IMPRP ELECT VDW BOUNDARY MISC KINETIC TOTAL TEMP POTENTIAL TOTALAVG TEMPAVG PRESSURE GPRESSURE VOLUME PRESSAVG GPRESSAVG
ENERGY: 0 4.1535 10.4859 27.4076 0.0000 -10690.2400 1350.4493 0.0000 0.0000 1733.4265 -7564.3173 293.8026 -9297.7438 -7564.3173 293.8026 -863.5257 -770.6840 30809.1518 -863.5257 -770.6840
ENERGY: 300000 4.8965 18.7157 24.5041 0.0000 -10665.9322 1424.2072 0.0000 0.0000 1749.5710 -7444.0377 296.5390 -9193.6087 -7536.1902 294.6665 -375.4450 -247.5154 31229.0544 -525.4076 -442.4488
ENERGY: 600000 7.1823 12.9566 24.7479 0.0000 -10790.3560 1486.6362 0.0000 0.0000 1757.0430 -7501.7899 297.8054 -9258.8330 -7508.0211 296.6062 471.6403 494.5596 30060.2205 -244.1107 -175.4634
ENERGY: 900000 7.9831 15.4119 28.9699 0.0000 -10718.8105 1438.8062 0.0000 0.0000 1738.4649 -7489.1745 294.6566 -9227.6394 -7495.3962 297.5853 -66.3168 -38.9628 30585.3777 -213.6542 -149.2009
ENERGY: 1200000 3.9547 16.0332 28.0910 0.0000 -10770.3921 1449.4157 0.0000 0.0000 1807.6079 -7465.2895 306.3758 -9272.8974 -7484.4435 298.8937 578.3407 561.1654 30011.9257 -75.3945 -13.9871
ENERGY: 1500000 8.1375 14.3333 32.6453 0.0000 -10814.0414 1457.0539 0.0000 0.0000 1811.7578 -7490.1135 307.0791 -9301.8713 -7479.8202 299.0697 138.3675 202.1175 30528.5848 -33.4457 22.2670
TCL: Running FEP window  15: Lambda1 0.7000000000000001 Lambda2 0.7500000000000001 [dLambda 0.050000000000000044]
TCL: Setting parameter firsttimestep to 0
TCL: Setting parameter alchLambda to 0.7000000000000001
Info: NONBONDED TABLE R-SQUARED SPACING: 0.0625
Info: NONBONDED TABLE SIZE: 705 POINTS
TCL: Setting parameter alchLambda2 to 0.7500000000000001
Info: NONBONDED TABLE R-SQUARED SPACING: 0.0625
Info: NONBONDED TABLE SIZE: 705 POINTS
TCL: Running for 1500000 steps
ETITLE: TS BOND ANGLE DIHED IMPRP ELECT VDW BOUNDARY MISC KINETIC TOTAL TEMP POTENTIAL TOTALAVG TEMPAVG PRESSURE GPRESSURE VOLUME PRESSAVG GPRESSAVG
ENERGY: 0 8.1375 14.3333 32.6454 0.0000 -10815.1189 1458.3683 0.0000 0.0000 1810.9096 -7490.7249 306.9354 -9301.6344 -7490.7249 306.9354 160.6878 230.9951 30528.5848 160.6878 230.9951
ENERGY: 300000 8.9472 11.0699 25.5827 0.0000 -10609.4537 1359.7426 0.0000 0.0000 1724.8802 -7479.2311 292.3541 -9204.1114 -7503.6118 297.3989 -467.1761 -430.1538 31227.9136 -371.4397 -325.2609
ENERGY: 600000 4.7397 12.3211 23.6636 0.0000 -10641.9575 1362.2810 0.0000 0.0000 1773.7960 -7465.1561 300.6449 -9238.9522 -7484.7687 297.8455 -643.5178 -607.7253 31202.2528 -290.4406 -229.9176
ENERGY: 900000 5.3823 16.8527 26.4035 0.0000 -10908.1459 1503.3938 0.0000 0.0000 1788.2345 -7567.8790 303.0921 -9356.1136 -7475.1523 299.5622 789.4622 883.3522 29733.4917 -64.0618 3.8177
ENERGY: 1200000 9.2139 11.2179 25.5538 0.0000 -10676.0206 1422.9458 0.0000 0.0000 1777.2148 -7429.8744 301.2244 -9207.0892 -7467.2868 300.9021 -208.0307 -156.0162 31099.6273 -61.4981 -0.3646
ENERGY: 1500000 8.2179 10.3441 26.7273 0.0000 -10655.2845 1334.8306 0.0000 0.0000 1724.0875 -7551.0772 292.2197 -9275.1646 -7476.7449 300.1380 -746.7476 -725.7694 30457.7402 -87.9639 -28.2892
TCL: Running FEP window  16: Lambda1 0.7500000000000001 Lambda2 0.8000000000000002 [dLambda 0.050000000000000044]
TCL: Setting parameter firsttimestep to 0
TCL: Setting parameter alchLambda to 0.7500000000000001
Info: NONBONDED TABLE R-SQUARED SPACING: 0.0625
Info: NONBONDED TABLE SIZE: 705 POINTS
TCL: Setting parameter alchLambda2 to 0.8000000000000002
Info: NONBONDED TABLE R-SQUARED SPACING: 0.0625
Info: NONBONDED TABLE SIZE: 705 POINTS
TCL: Running for 1500000 steps
ETITLE: TS BOND ANGLE DIHED IMPRP ELECT VDW BOUNDARY MISC KINETIC TOTAL TEMP POTENTIAL TOTALAVG TEMPAVG PRESSURE GPRESSURE VOLUME PRESSAVG GPRESSAVG
ENERGY: 0 8.2179 10.3441 26.7273 0.0000 -10657.5848 1335.7167 0.0000 0.0000 1723.1777 -7553.4011 292.0655 -9276.5788 -7553.4011 292.0655 -788.0898 -702.2303 30457.7402 -788.0898 -702.2303
ENERGY: 300000 4.9328 15.5636 26.6532 0.0000 -10860.6936 1466.3268 0.0000 0.0000 1744.7576 -7602.4595 295.7231 -9347.2171 -7559.1811 297.9952 153.7626 181.0961 30010.0439 129.2153 192.6361
ENERGY: 600000 4.7576 15.5126 34.2525 0.0000 -10865.3357 1466.0632 0.0000 0.0000 1796.2356 -7548.5143 304.4482 -9344.7498 -7556.5198 298.6927 326.7770 382.2440 30325.2574 178.6289 235.4371
ENERGY: 900000 8.6695 14.2403 29.7955 0.0000 -10660.0066 1356.9950 0.0000 0.0000 1761.2276 -7489.0786 298.5147 -9250.3062 -7537.9833 298.3089 -946.3498 -889.5364 31109.6688 -114.8737 -48.6837
ENERGY: 1200000 9.4453 20.0171 26.1549 0.0000 -10665.1895 1399.3797 0.0000 0.0000 1754.1401 -7456.0524 297.3134 -9210.1925 -7529.8479 298.1089 102.5889 152.5300 30254.6512 -76.4172 -13.1945
ENERGY: 1500000 9.4002 12.4738 27.4267 0.0000 -10789.4195 1452.4383 0.0000 0.0000 1787.7376 -7499.9429 303.0079 -9287.6804 -7512.7618 298.8738 125.1680 156.5536 30472.4492 -102.0112 -37.7901
TCL: Running FEP window  17: Lambda1 0.8000000000000002 Lambda2 0.8500000000000002 [dLambda 0.050000000000000044]
TCL: Setting parameter firsttimestep to 0
TCL: Setting parameter alchLambda to 0.8000000000000002
Info: NONBONDED TABLE R-SQUARED SPACING: 0.0625
Info: NONBONDED TABLE SIZE: 705 POINTS
TCL: Setting parameter alchLambda2 to 0.8500000000000002
Info: NONBONDED TABLE R-SQUARED SPACING: 0.0625
Info: NONBONDED TABLE SIZE: 705 POINTS
TCL: Running for 1500000 steps
ETITLE: TS BOND ANGLE DIHED IMPRP ELECT VDW BOUNDARY MISC KINETIC TOTAL TEMP POTENTIAL TOTALAVG TEMPAVG PRESSURE GPRESSURE VOLUME PRESSAVG GPRESSAVG
ENERGY: 0 9.4002 12.4738 27.4267 0.0000 -10792.2487 1453.8300 0.0000 0.0000 1786.8446 -7502.2734 302.8566 -9289.1180 -7502.2734 302.8566 86.3107 180.8704 30472.4492 86.3107 180.8704
ENERGY: 300000 1.5662 13.1333 33.1341 0.0000 -10702.4711 1415.6128 0.0000 0.0000 1784.0005 -7455.0242 302.3745 -9239.0247 -7455.4742 303.9047 -84.3695 18.7483 30561.2521 -214.5787 -129.8739
ENERGY: 600000 5.7301 14.3609 28.7748 0.0000 -10777.0533 1404.5205 0.0000 0.0000 1773.5418 -7550.1252 300.6018 -9323.6671 -7471.2185 303.1596 -340.1192 -273.0442 30847.8530 -50.0400 25.9168
ENERGY: 900000 4.3506 16.3606 31.2235 0.0000 -10805.0009 1451.8481 0.0000 0.0000 1759.2581 -7541.9600 298.1809 -9301.2181 -7481.1787 301.6262 -5.7016 42.9805 30464.4474 -109.9974 -37.8076
ENERGY: 1200000 4.3097 15.6404 25.5082 0.0000 -10791.5774 1429.6665 0.0000 0.0000 1780.8169 -7535.6358 301.8349 -9316.4527 -7497.0795 300.1934 -13.9139 55.9645 30735.7166 -145.7834 -76.6209
ENERGY: 1500000 10.5177 13.7096 29.3330 0.0000 -10580.5366 1342.1330 0.0000 0.0000 1780.6093 -7404.2340 301.7997 -9184.8433 -7490.8240 300.6120 -74.6746 -31.2753 30235.6371 -192.1960 -126.1488
TCL: Running FEP window  18: Lambda1 0.8500000000000002 Lambda2 0.9000000000000002 [dLambda 0.050000000000000044]
TCL: Setting parameter firsttimestep to 0
TCL: Setting parameter alchLambda to 0.8500000000000002
Info: NONBONDED TABLE R-SQUARED SPACING: 0.0625
Info: NONBONDED TABLE SIZE: 705 POINTS
TCL: Setting parameter alchLambda2 to 0.9000000000000002
Info: NONBONDED TABLE R-SQUARED SPACING: 0.0625
Info: NONBONDED TABLE SIZE: 705 POINTS
TCL: Running for 1500000 steps
ETITLE: TS BOND ANGLE DIHED IMPRP ELECT VDW BOUNDARY MISC KINETIC TOTAL TEMP POTENTIAL TOTALAVG TEMPAVG PRESSURE GPRESSURE VOLUME PRESSAVG GPRESSAVG
ENERGY: 0 10.5177 13.7096 29.3330 0.0000 -10583.1374 1345.5837 0.0000 0.0000 1779.7121 -7404.2813 301.6476 -9183.9934 -7404.2813 301.6476 -54.8965 31.1150 30235.6371 -54.8965 31.1150
ENERGY: 300000 5.0782 11.2987 23.3961 0.0000 -10729.5110 1431.0744 0.0000 0.0000 1788.4867 -7470.1769 303.1349 -9258.6636 -7468.0938 298.7464 462.4280 524.0115 30383.9925 60.8177 105.0333
ENERGY: 600000 6.1220 18.1282 24.4425 0.0000 -10700.0777 1412.1074 0.0000 0.0000 1733.7001 -7505.5775 293.8490 -9239.2776 -7494.2989 297.2823 -4.8922 40.6801 30586.2476 -62.6216 -17.6520
ENERGY: 900000 3.9092 15.4581 25.2094 0.0000 -10500.3607 1290.6328 0.0000 0.0000 1771.0632 -7394.0879 300.1817 -9165.1511 -7501.0407 298.3265 -829.0778 -686.1137 30766.6332 -115.1514 -57.0208
ENERGY: 1200000 5.7956 11.0235 30.6654 0.0000 -10807.5329 1461.3936 0.0000 0.0000 1823.5431 -7475.1117 309.0767 -9298.6548 -7500.9353 299.9487 283.1914 350.9251 30237.4658 -165.1506 -107.0469
ENERGY: 1500000 4.4133 9.2941 26.3775 0.0000 -10668.2820 1367.9507 0.0000 0.0000 1750.7964 -7509.4499 296.7467 -9260.2463 -7503.0578 299.7001 -497.3024 -396.5466 30841.7964 -107.1130 -52.5203
TCL: Running FEP window  19: Lambda1 0.9000000000000002 Lambda2 0.9500000000000003 [dLambda 0.050000000000000044]
TCL: Setting parameter firsttimestep to 0
TCL: Setting parameter alchLambda to 0.9000000000000002
Info: NONBONDED TABLE R-SQUARED SPACING: 0.0625
Info: NONBONDED TABLE SIZE: 705 POINTS
TCL: Setting parameter alchLambda2 to 0.9500000000000003
Info: NONBONDED TABLE R-SQUARED SPACING: 0.0625
Info: NONBONDED TABLE SIZE: 705 POINTS
TCL: Running for 1500000 steps
ETITLE: TS BOND ANGLE DIHED IMPRP ELECT VDW BOUNDARY MISC KINETIC TOTAL TEMP POTENTIAL TOTALAVG TEMPAVG PRESSURE GPRESSURE VOLUME PRESSAVG GPRESSAVG
ENERGY: 0 4.4133 9.2941 26.3775 0.0000 -10671.3528 1369.1088 0.0000 0.0000 1749.9252 -7512.2338 296.5990 -9262.1590 -7512.2338 296.5990 -449.6508 -367.0557 30841.7964 -449.6508 -367.0557
ENERGY: 300000 3.7460 13.5026 23.9219 0.0000 -10723.6342 1407.5032 0.0000 0.0000 1735.9699 -7538.9905 294.2337 -9274.9604 -7486.6454 297.3526 -325.2473 -220.4204 30379.2045 -296.0306 -198.8635
ENERGY: 600000 4.9680 12.5322 28.7900 0.0000 -10722.2364 1359.4057 0.0000 0.0000 1763.0505 -7553.4901 298.8236 -9316.5405 -7505.2479 298.8788 -358.3585 -304.5027 30541.9563 -207.6798 -129.9285
ENERGY: 900000 6.9203 14.5348 25.1372 0.0000 -10706.6437 1451.6706 0.0000 0.0000 1781.7597 -7426.6210 301.9947 -9208.3808 -7487.5664 300.2468 150.6410 235.9335 31004.2565 -138.7862 -57.3723
ENERGY: 1200000 3.8173 14.3728 31.4539 0.0000 -10691.1513 1374.8652 0.0000 0.0000 1766.5907 -7500.0513 299.4237 -9266.6420 -7495.9837 299.9176 -58.8009 10.7569 30445.3944 -52.6421 22.8162
ENERGY: 1500000 11.6937 12.7395 26.9265 0.0000 -10581.7306 1346.5962 0.0000 0.0000 1795.1629 -7388.6118 304.2664 -9183.7748 -7489.9721 299.8422 -390.0757 -387.0835 30698.3231 -134.0674 -62.1205
TCL: Running FEP window  20: Lambda1 0.9500000000000003 Lambda2 1.0    [dLambda 0.04999999999999971]
TCL: Setting parameter firsttimestep to 0
TCL: Setting parameter alchLambda to 0.9500000000000003
Info: NONBONDED TABLE R-SQUARED SPACING: 0.0625
Info: NONBONDED TABLE SIZE: 705 POINTS
TCL: Setting parameter alchLambda2 to 1.0
Info: NONBONDED TABLE R-SQUARED SPACING: 0.0625
Info: NONBONDED TABLE SIZE: 705 POINTS
TCL: Running for 1500000 steps
ETITLE: TS BOND ANGLE DIHED IMPRP ELECT VDW BOUNDARY MISC KINETIC TOTAL TEMP POTENTIAL TOTALAVG TEMPAVG PRESSURE GPRESSURE VOLUME PRESSAVG GPRESSAVG
ENERGY: 0 11.6937 12.7395 26.9265 0.0000 -10584.6665 1347.6624 0.0000 0.0000 1794.3005 -7391.3439 304.1203 -9185.6444 -7391.3439 304.1203 -429.6655 -356.4543 30698.3231 -429.6655 -356.4543
ENERGY: 300000 10.9953 9.9912 28.8789 0.0000 -10836.2337 1429.8532 0.0000 0.0000 1785.6202 -7570.8948 302.6490 -9356.5150 -7487.2456 299.5648 -65.0620 -13.5563 30232.8326 -34.5412 41.6819
ENERGY: 600000 11.1735 13.1795 24.7634 0.0000 -10769.9316 1405.2528 0.0000 0.0000 1806.9172 -7508.6452 306.2587 -9315.5624 -7490.4274 299.7152 101.7836 137.7409 29982.9231 -17.3436 56.6923
ENERGY: 900000 5.8409 15.2106 25.1986 0.0000 -10401.5765 1201.9776 0.0000 0.0000 1786.5612 -7366.7876 302.8085 -9153.3487 -7466.6129 299.2748 -1586.5902 -1540.5779 31487.3199 -194.4066 -113.5592
ENERGY: 1200000 3.3728 10.0560 27.8731 0.0000 -10788.3015 1420.5305 0.0000 0.0000 1806.4088 -7520.0602 306.1725 -9326.4690 -7473.6807 300.5414 -49.4846 0.7768 30651.6716 -227.1686 -149.2550
ENERGY: 1500000 5.7045 11.5679 22.4405 0.0000 -10632.1866 1415.1546 0.0000 0.0000 1809.5456 -7367.7736 306.7042 -9177.3191 -7462.3915 301.8035 206.8465 303.2937 30869.4681 -159.7703 -87.0565
TCL: Exiting due to exit command.
