Info: SIMULATION PARAMETERS:
Info: TIMESTEP               2
Info: NUMBER OF STEPS        0
Info: STEPS PER CYCLE        10
Info: PERIODIC CELL BASIS 1  29.1289 0 0
Info: PERIODIC CELL BASIS 2  0 34.7399 0
Info: PERIODIC CELL BASIS 3  0 0 30.255
Info: PERIODIC CELL CENTER   0 0 0
Info: WRAPPING WATERS AROUND PERIODIC BOUNDARIES ON OUTPUT.
Info: WRAPPING ALL CLUSTERS AROUND PERIODIC BOUNDARIES ON OUTPUT.
Info: FIRST LDB TIMESTEP     50
Info: LAST LDB TIMESTEP     -1
Info: HOM BACKGROUND SCALING 1
Info: PME BACKGROUND SCALING 1
Info: MIN ATOMS PER PATCH    40
Info: EMPTY PATCH LOAD       40 ATOMS
Info: VELOCITY FILE          mobley_4694328_equil.vel
Info: CENTER OF MASS MOVING INITIALLY? NO
Info: DIELECTRIC             1
Info: EXCLUDE                SCALED ONE-FOUR
Info: 1-4 ELECTROSTATICS SCALED BY 0.833333
Info: MODIFIED 1-4 VDW PARAMETERS WILL BE USED
Info: DCD FILENAME           mobley_4694328_prod.dcd
Info: DCD FREQUENCY          100000
Info: DCD FIRST STEP         100000
Info: DCD FILE WILL CONTAIN UNIT CELL DATA
Info: XST FILENAME           mobley_4694328_prod.xst
Info: XST FREQUENCY          100000
Info: NO VELOCITY DCD OUTPUT
Info: NO FORCE DCD OUTPUT
Info: OUTPUT FILENAME        mobley_4694328_prod
Info: BINARY OUTPUT FILES WILL BE USED
Info: RESTART FILENAME       mobley_4694328_prod.restart
Info: RESTART FREQUENCY      100000
Info: BINARY RESTART FILES WILL BE USED
Info: CUTOFF                 9
Info: PAIRLIST DISTANCE      11
Info: PAIRLIST SHRINK RATE   0.01
Info: PAIRLIST GROW RATE     0.01
Info: PAIRLIST TRIGGER       0.3
Info: PAIRLISTS PER CYCLE    2
Info: PAIRLISTS ENABLED
Info: MARGIN                 2
Info: HYDROGEN GROUP CUTOFF  2.5
Info: PATCH DIMENSION        15.5
Info: ENERGY OUTPUT STEPS    100000
Info: ENERGY EVALUATION STEPS    100000
Info: OUTPUT ENERGY PRECISION 4
Info: CROSSTERM ENERGY INCLUDED IN DIHEDRAL
Info: TIMING OUTPUT STEPS    1000000
Info: PRESSURE OUTPUT STEPS  100000
Info: ALCHEMICAL FEP ON
Info: FEP CURRENT LAMBDA VALUE     0
Info: FEP COMPARISON LAMBDA VALUE  0.05
Info: FEP INTRA-ALCHEMICAL NON-BONDED INTERACTIONS WILL BE RETAINED
Info: FEP INTRA-ALCHEMICAL BONDED INTERACTIONS WILL BE RETAINED
Info: FEP VDW SHIFTING COEFFICIENT 5
Info: FEP ELEC. ACTIVE FOR ANNIHILATED PARTICLES BETWEEN LAMBDA = 0 AND LAMBDA = 0.5
Info: FEP ELEC. ACTIVE FOR EXNIHILATED PARTICLES BETWEEN LAMBDA = 0.5 AND LAMBDA = 1
Info: FEP VDW ACTIVE FOR ANNIHILATED PARTICLES BETWEEN LAMBDA = 0 AND LAMBDA = 1
Info: FEP VDW ACTIVE FOR EXNIHILATED PARTICLES BETWEEN LAMBDA = 0 AND LAMBDA = 1
Info: FEP BOND ACTIVE FOR ANNIHILATED PARTICLES BETWEEN LAMBDA = 1 AND LAMBDA = 1
Info: FEP BOND ACTIVE FOR EXNIHILATED PARTICLES BETWEEN LAMBDA = 0 AND LAMBDA = 0
Info: LANGEVIN DYNAMICS ACTIVE
Info: LANGEVIN TEMPERATURE   300
Info: LANGEVIN USING BBK INTEGRATOR
Info: LANGEVIN DAMPING COEFFICIENT IS 1 INVERSE PS
Info: LANGEVIN DYNAMICS APPLIED TO HYDROGENS
Info: LANGEVIN PISTON PRESSURE CONTROL ACTIVE
Info:        TARGET PRESSURE IS 1.01325 BAR
Info:     OSCILLATION PERIOD IS 50 FS
Info:             DECAY TIME IS 25 FS
Info:     PISTON TEMPERATURE IS 300 K
Info:       PRESSURE CONTROL IS GROUP-BASED
Info:    INITIAL STRAIN RATE IS 0.000192584 0.000192584 0.000192584
Info:       CELL FLUCTUATION IS ISOTROPIC
Info: PARTICLE MESH EWALD (PME) ACTIVE
Info: PME TOLERANCE               1e-06
Info: PME EWALD COEFFICIENT       0.348832
Info: PME INTERPOLATION ORDER     4
Info: PME GRID DIMENSIONS         32 36 32
Info: PME MAXIMUM GRID SPACING    1
Info: PME CALCULATION WILL BE PERFORMED ON GPU
Info: FULL ELECTROSTATIC EVALUATION FREQUENCY      2
Info: USING VERLET I (r-RESPA) MTS SCHEME.
Info: C1 SPLITTING OF LONG RANGE ELECTROSTATICS
Info: PLACING ATOMS IN PATCHES BY HYDROGEN GROUPS
Info: RIGID BONDS TO HYDROGEN : ALL
Info:         ERROR TOLERANCE : 1e-08
Info:          MAX ITERATIONS : 100
Info: RIGID WATER USING SETTLE ALGORITHM
Info: RANDOM NUMBER SEED     1744058288
Info: USE HYDROGEN BONDS?    NO
Info: Using AMBER format force field!
Info: AMBER PARM FILE        mobley_4694328.prmtop
Info: COORDINATE PDB         mobley_4694328.pdb
Info: Exclusions will be read from PARM file!
Info: SCNB (VDW SCALING)     2
Info: USING ARITHMETIC MEAN TO COMBINE L-J SIGMA PARAMETERS
Info: BINARY COORDINATES     mobley_4694328_equil.coor
Info: SUMMARY OF PARAMETERS:
Info: 7 BONDS
Info: 8 ANGLES
Info:   8 HARMONIC
Info:   0 COSINE-BASED
Info: 11 DIHEDRAL
Info: 0 IMPROPER
Info: 0 CROSSTERM
Info: 0 VDW
Info: 28 VDW_PAIRS
Info: 0 NBTHOLE_PAIRS
Info: To read alchdata from file: mobley_4694328.pdb
Info: To read alchflag data from column: 5
Info: STRUCTURE SUMMARY:
Info: 2962 ATOMS
Info: 2961 BONDS
Info: 45 ANGLES
Info: 73 DIHEDRALS
Info: 0 IMPROPERS
Info: 0 CROSSTERMS
Info: 3066 EXCLUSIONS
Info: 2953 RIGID BONDS
Info: ALCH: 0 ATOMS TO DISAPPEAR IN FINAL STATE
Info: ALCH: 25 ATOMS TO APPEAR IN FINAL STATE
Info: 5933 DEGREES OF FREEDOM
Info: 988 HYDROGEN GROUPS
Info: 4 ATOMS IN LARGEST HYDROGEN GROUP
Info: 988 MIGRATION GROUPS
Info: 4 ATOMS IN LARGEST MIGRATION GROUP
Info: TOTAL MASS = 17765.9 amu
Info: TOTAL CHARGE = -0.000100016 e
Info: MASS DENSITY = 0.963594 g/cm^3
Info: ATOM DENSITY = 0.0967461 atoms/A^3
Info: ADDED 0 IMPLICIT EXCLUSIONS
Info: NONBONDED TABLE R-SQUARED SPACING: 0.0625
Info: NONBONDED TABLE SIZE: 705 POINTS
Info: REMOVING COM VELOCITY -0.177589 0.0844265 0.052192
Info: Use 3D box decompostion in PME FFT.
Info: Updated CUDA force table with 4096 elements.
Info: Updated CUDA LJ table with 7 x 7 elements.
Info: Found 28 unique exclusion lists needing 100 bytes
TCL: Running for 1500000 steps
ETITLE: TS BOND ANGLE DIHED IMPRP ELECT VDW BOUNDARY MISC KINETIC TOTAL TEMP POTENTIAL TOTALAVG TEMPAVG PRESSURE GPRESSURE VOLUME PRESSAVG GPRESSAVG
ENERGY: 0 2.4855 9.5857 4.2824 0.0000 -10695.2783 1400.3072 0.0000 0.0000 1755.3391 -7523.2785 297.7673 -9278.6176 -7523.2785 297.7673 -711.3925 -629.1759 30616.2197 -711.3925 -629.1759
ENERGY: 300000 2.8121 8.4040 4.9909 0.0000 -10727.9932 1473.8254 0.0000 0.0000 1712.2604 -7525.7004 290.4597 -9237.9608 -7514.0828 298.7291 -71.2629 68.0316 30481.6348 59.0120 131.6896
ENERGY: 600000 1.8296 12.8283 3.9256 0.0000 -10765.4344 1530.9601 0.0000 0.0000 1809.2058 -7406.6850 306.9050 -9215.8908 -7502.5005 300.3975 1064.4142 1129.7165 29538.7469 -1.3572 72.2079
ENERGY: 900000 2.0018 11.1170 5.0637 0.0000 -10612.2628 1411.1444 0.0000 0.0000 1739.2896 -7443.6463 295.0448 -9182.9359 -7490.7089 299.2699 -45.4933 5.0373 30212.5140 -32.9386 37.1844
ENERGY: 1200000 3.7995 13.7881 6.5556 0.0000 -10696.7992 1432.8361 0.0000 0.0000 1765.5667 -7474.2533 299.5023 -9239.8200 -7482.0195 298.7237 45.1626 70.4330 29790.4782 -24.3905 40.4927
ENERGY: 1500000 1.3297 15.4419 5.7139 0.0000 -10891.7095 1516.2972 0.0000 0.0000 1779.4130 -7573.5137 301.8511 -9352.9267 -7486.1888 299.1277 607.6725 639.4579 29519.7823 -69.0673 -8.1561
TCL: Running FEP window   2: Lambda1 0.05   Lambda2 0.1    [dLambda 0.05  ]
TCL: Setting parameter firsttimestep to 0
TCL: Setting parameter alchLambda to 0.05
Info: NONBONDED TABLE R-SQUARED SPACING: 0.0625
Info: NONBONDED TABLE SIZE: 705 POINTS
TCL: Setting parameter alchLambda2 to 0.1
Info: NONBONDED TABLE R-SQUARED SPACING: 0.0625
Info: NONBONDED TABLE SIZE: 705 POINTS
TCL: Running for 1500000 steps
ETITLE: TS BOND ANGLE DIHED IMPRP ELECT VDW BOUNDARY MISC KINETIC TOTAL TEMP POTENTIAL TOTALAVG TEMPAVG PRESSURE GPRESSURE VOLUME PRESSAVG GPRESSAVG
ENERGY: 0 1.3297 15.4419 5.7139 0.0000 -10891.7100 1517.8359 0.0000 0.0000 1778.5245 -7572.8639 301.7004 -9351.3885 -7572.8639 301.7004 563.2241 646.1003 29519.7823 563.2241 646.1003
ENERGY: 300000 1.5437 9.8958 4.1774 0.0000 -10724.4959 1459.3731 0.0000 0.0000 1802.4640 -7447.0420 305.7614 -9249.5060 -7508.4748 302.6212 126.2748 227.0244 30380.7177 276.4991 355.4672
ENERGY: 600000 3.3391 11.3148 4.2848 0.0000 -10689.1741 1406.6802 0.0000 0.0000 1755.4211 -7508.1341 297.7812 -9263.5552 -7502.3437 301.5398 -334.2921 -248.3919 30276.2321 251.8727 320.1087
ENERGY: 900000 1.3461 15.3529 5.4744 0.0000 -10683.0186 1475.7010 0.0000 0.0000 1752.3772 -7432.7670 297.2649 -9185.1442 -7496.2946 300.7825 465.7467 521.1768 30237.0155 207.0702 276.9460
ENERGY: 1200000 1.6139 15.7718 4.1623 0.0000 -10859.8821 1518.6892 0.0000 0.0000 1767.9368 -7551.7081 299.9044 -9319.6449 -7503.9911 299.9395 491.6110 562.8534 29808.5656 192.0473 263.0109
ENERGY: 1500000 2.6496 14.5439 6.8470 0.0000 -10738.1411 1377.4239 0.0000 0.0000 1784.4214 -7552.2552 302.7007 -9336.6766 -7501.8771 300.1642 -788.8487 -705.4828 30354.2441 112.0102 180.3662
TCL: Running FEP window   3: Lambda1 0.1    Lambda2 0.15000000000000002 [dLambda 0.05000000000000002]
TCL: Setting parameter firsttimestep to 0
TCL: Setting parameter alchLambda to 0.1
Info: NONBONDED TABLE R-SQUARED SPACING: 0.0625
Info: NONBONDED TABLE SIZE: 705 POINTS
TCL: Setting parameter alchLambda2 to 0.15000000000000002
Info: NONBONDED TABLE R-SQUARED SPACING: 0.0625
Info: NONBONDED TABLE SIZE: 705 POINTS
TCL: Running for 1500000 steps
ETITLE: TS BOND ANGLE DIHED IMPRP ELECT VDW BOUNDARY MISC KINETIC TOTAL TEMP POTENTIAL TOTALAVG TEMPAVG PRESSURE GPRESSURE VOLUME PRESSAVG GPRESSAVG
ENERGY: 0 2.6496 14.5439 6.8470 0.0000 -10738.1414 1379.0068 0.0000 0.0000 1783.5615 -7551.5325 302.5549 -9335.0941 -7551.5325 302.5549 -766.3476 -696.4063 30354.2441 -766.3476 -696.4063
ENERGY: 300000 2.7711 13.4075 3.8697 0.0000 -10800.7760 1514.1266 0.0000 0.0000 1804.7347 -7461.8664 306.1466 -9266.6011 -7476.3724 305.0975 518.2360 524.5980 30143.9794 46.0243 91.9431
ENERGY: 600000 2.4444 11.0163 3.2089 0.0000 -10657.6797 1434.6879 0.0000 0.0000 1718.7645 -7487.5577 291.5630 -9206.3222 -7478.8285 300.7822 -153.1614 -94.1495 30651.7781 -142.9171 -81.0189
ENERGY: 900000 2.5116 12.2725 5.8391 0.0000 -10672.8040 1489.6621 0.0000 0.0000 1744.1655 -7418.3532 295.8719 -9162.5188 -7470.3397 300.3288 524.8374 568.7185 30688.1953 -184.0889 -116.7652
ENERGY: 1200000 1.2538 13.8151 4.7447 0.0000 -10737.3797 1470.8007 0.0000 0.0000 1751.1704 -7495.5950 297.0602 -9246.7654 -7460.5450 300.1944 158.2494 242.6543 30088.0931 -116.6164 -49.8370
ENERGY: 1500000 2.6283 14.6488 5.9318 0.0000 -10638.5680 1405.0930 0.0000 0.0000 1789.2671 -7420.9990 303.5227 -9210.2661 -7459.1730 299.7304 -4.9886 -35.9113 30215.6736 -165.1898 -102.6964
TCL: Running FEP window   4: Lambda1 0.15000000000000002 Lambda2 0.2    [dLambda 0.04999999999999999]
TCL: Setting parameter firsttimestep to 0
TCL: Setting parameter alchLambda to 0.15000000000000002
Info: NONBONDED TABLE R-SQUARED SPACING: 0.0625
Info: NONBONDED TABLE SIZE: 705 POINTS
TCL: Setting parameter alchLambda2 to 0.2
Info: NONBONDED TABLE R-SQUARED SPACING: 0.0625
Info: NONBONDED TABLE SIZE: 705 POINTS
TCL: Running for 1500000 steps
ETITLE: TS BOND ANGLE DIHED IMPRP ELECT VDW BOUNDARY MISC KINETIC TOTAL TEMP POTENTIAL TOTALAVG TEMPAVG PRESSURE GPRESSURE VOLUME PRESSAVG GPRESSAVG
ENERGY: 0 2.6283 14.6488 5.9318 0.0000 -10638.5692 1405.9382 0.0000 0.0000 1788.3834 -7421.0386 303.3728 -9209.4220 -7421.0386 303.3728 -106.9934 -30.1040 30215.6736 -106.9934 -30.1040
ENERGY: 300000 4.3226 8.3635 5.5546 0.0000 -10595.8807 1418.2943 0.0000 0.0000 1848.2421 -7311.1035 313.5270 -9159.3456 -7434.8405 305.0197 -35.3267 50.0150 30457.1672 -229.8737 -176.3567
ENERGY: 600000 2.5491 7.8865 3.8450 0.0000 -10484.7521 1263.3433 0.0000 0.0000 1773.5869 -7433.5413 300.8628 -9207.1282 -7440.8492 303.1176 -1456.6643 -1427.0114 30818.8060 -299.4906 -255.1557
ENERGY: 900000 5.2270 11.2871 4.3561 0.0000 -10746.8238 1442.0859 0.0000 0.0000 1741.3936 -7542.4741 295.4017 -9283.8677 -7479.3247 300.3860 -510.7022 -389.8766 30651.6823 -292.0119 -236.9572
ENERGY: 1200000 1.7307 12.0049 5.3081 0.0000 -10691.0573 1418.2312 0.0000 0.0000 1762.4749 -7491.3076 298.9778 -9253.7825 -7477.9208 300.2617 -453.0584 -393.8212 30772.0513 -293.7347 -234.8470
ENERGY: 1500000 5.6260 14.3097 6.8106 0.0000 -10723.7019 1440.9331 0.0000 0.0000 1829.0892 -7426.9332 310.2780 -9256.0225 -7475.0222 300.3170 -122.2600 -30.9409 30015.6794 -225.8498 -164.1433
TCL: Running FEP window   5: Lambda1 0.2    Lambda2 0.25   [dLambda 0.04999999999999999]
TCL: Setting parameter firsttimestep to 0
TCL: Setting parameter alchLambda to 0.2
Info: NONBONDED TABLE R-SQUARED SPACING: 0.0625
Info: NONBONDED TABLE SIZE: 705 POINTS
TCL: Setting parameter alchLambda2 to 0.25
Info: NONBONDED TABLE R-SQUARED SPACING: 0.0625
Info: NONBONDED TABLE SIZE: 705 POINTS
TCL: Running for 1500000 steps
ETITLE: TS BOND ANGLE DIHED IMPRP ELECT VDW BOUNDARY MISC KINETIC TOTAL TEMP POTENTIAL TOTALAVG TEMPAVG PRESSURE GPRESSURE VOLUME PRESSAVG GPRESSAVG
ENERGY: 0 5.6260 14.3098 6.8106 0.0000 -10723.7013 1441.6246 0.0000 0.0000 1828.1838 -7427.1466 310.1244 -9255.3304 -7427.1466 310.1244 -110.7633 -22.7936 30015.6794 -110.7633 -22.7936
ENERGY: 300000 1.5705 12.6942 6.6781 0.0000 -10749.4903 1487.3673 0.0000 0.0000 1713.2213 -7527.9589 290.6227 -9241.1802 -7477.6893 298.2522 -65.1575 139.6194 30587.6581 -171.3017 -52.5142
ENERGY: 600000 3.2855 10.5106 3.9627 0.0000 -10542.2078 1347.0188 0.0000 0.0000 1781.5757 -7395.8545 302.2180 -9177.4302 -7471.6779 298.4592 -557.2221 -526.9379 30085.0891 -330.7271 -246.8159
ENERGY: 900000 4.2203 15.0328 5.3046 0.0000 -10623.6882 1438.8663 0.0000 0.0000 1750.5707 -7409.6935 296.9585 -9160.2643 -7469.3119 298.4051 157.7317 208.9455 30184.1845 -87.2228 -9.9361
ENERGY: 1200000 3.0655 10.3785 4.8840 0.0000 -10697.8749 1396.6949 0.0000 0.0000 1770.9408 -7511.9112 300.4139 -9282.8520 -7485.0362 298.0812 -438.5654 -340.2672 30180.0421 -239.6438 -165.3300
ENERGY: 1500000 2.2985 15.8882 3.4288 0.0000 -10725.7955 1449.6787 0.0000 0.0000 1798.8708 -7455.6305 305.1519 -9254.5014 -7472.3621 299.6962 -369.0989 -250.9054 30588.2665 -61.1869 11.3495
TCL: Running FEP window   6: Lambda1 0.25   Lambda2 0.3    [dLambda 0.04999999999999999]
TCL: Setting parameter firsttimestep to 0
TCL: Setting parameter alchLambda to 0.25
Info: NONBONDED TABLE R-SQUARED SPACING: 0.0625
Info: NONBONDED TABLE SIZE: 705 POINTS
TCL: Setting parameter alchLambda2 to 0.3
Info: NONBONDED TABLE R-SQUARED SPACING: 0.0625
Info: NONBONDED TABLE SIZE: 705 POINTS
TCL: Running for 1500000 steps
ETITLE: TS BOND ANGLE DIHED IMPRP ELECT VDW BOUNDARY MISC KINETIC TOTAL TEMP POTENTIAL TOTALAVG TEMPAVG PRESSURE GPRESSURE VOLUME PRESSAVG GPRESSAVG
ENERGY: 0 2.2985 15.8882 3.4288 0.0000 -10725.7945 1450.5786 0.0000 0.0000 1797.9800 -7455.6205 305.0007 -9253.6005 -7455.6205 305.0007 -341.8263 -241.7456 30588.2665 -341.8263 -241.7456
ENERGY: 300000 1.7576 10.2619 4.6034 0.0000 -10866.3238 1537.6284 0.0000 0.0000 1802.1600 -7509.9125 305.7098 -9312.0725 -7479.4369 302.7450 602.5020 696.9290 30119.6139 -153.5362 -96.6972
ENERGY: 600000 3.7788 12.6779 5.6807 0.0000 -10598.0889 1389.1817 0.0000 0.0000 1799.5165 -7387.2534 305.2614 -9186.7698 -7455.3339 303.2887 -196.6439 -131.4671 30244.6360 -125.9759 -68.7437
ENERGY: 900000 5.7125 10.8629 5.3392 0.0000 -10655.1422 1456.8762 0.0000 0.0000 1782.1643 -7394.1870 302.3178 -9176.3514 -7444.8413 302.5191 128.6348 204.2364 30713.0837 -130.4751 -76.5416
ENERGY: 1200000 2.3775 9.1813 4.2776 0.0000 -10605.8371 1411.3021 0.0000 0.0000 1772.3347 -7406.3638 300.6504 -9178.6985 -7457.2866 301.5551 79.0863 140.2015 30113.2246 3.4931 55.9430
ENERGY: 1500000 2.3898 16.7977 7.2594 0.0000 -10660.2088 1410.1184 0.0000 0.0000 1798.7158 -7424.9277 305.1255 -9223.6435 -7460.3902 300.8784 -473.1621 -349.6489 30413.7262 -32.2652 22.4301
TCL: Running FEP window   7: Lambda1 0.3    Lambda2 0.35   [dLambda 0.04999999999999999]
TCL: Setting parameter firsttimestep to 0
TCL: Setting parameter alchLambda to 0.3
Info: NONBONDED TABLE R-SQUARED SPACING: 0.0625
Info: NONBONDED TABLE SIZE: 705 POINTS
TCL: Setting parameter alchLambda2 to 0.35
Info: NONBONDED TABLE R-SQUARED SPACING: 0.0625
Info: NONBONDED TABLE SIZE: 705 POINTS
TCL: Running for 1500000 steps
ETITLE: TS BOND ANGLE DIHED IMPRP ELECT VDW BOUNDARY MISC KINETIC TOTAL TEMP POTENTIAL TOTALAVG TEMPAVG PRESSURE GPRESSURE VOLUME PRESSAVG GPRESSAVG
ENERGY: 0 2.3898 16.7977 7.2594 0.0000 -10660.2096 1410.1283 0.0000 0.0000 1797.8274 -7425.8070 304.9748 -9223.6344 -7425.8070 304.9748 -418.4124 -342.5995 30413.7262 -418.4124 -342.5995
ENERGY: 300000 3.0751 13.4129 5.3941 0.0000 -10623.7605 1417.1558 0.0000 0.0000 1770.0297 -7414.6930 300.2594 -9184.7226 -7455.2697 300.8929 -550.0982 -405.0262 31031.2572 -167.1021 -87.3770
ENERGY: 600000 1.4430 7.8570 6.7514 0.0000 -10645.8266 1439.4465 0.0000 0.0000 1804.8611 -7385.4678 306.1680 -9190.3288 -7448.8411 301.8111 -61.2638 -15.2325 30695.7031 -161.4371 -98.5480
ENERGY: 900000 1.3595 10.3292 8.4303 0.0000 -10789.0938 1470.7650 0.0000 0.0000 1791.3724 -7506.8374 303.8799 -9298.2098 -7463.5398 300.4024 -6.1132 61.5392 30236.9077 -204.6142 -144.4119
ENERGY: 1200000 3.7349 10.4461 4.7005 0.0000 -10844.7808 1573.1920 0.0000 0.0000 1733.5581 -7519.1492 294.0725 -9252.7073 -7472.5745 299.5389 900.1791 901.2956 30040.7708 -102.4881 -55.5698
ENERGY: 1500000 1.1962 12.7638 6.8295 0.0000 -10610.3647 1361.6207 0.0000 0.0000 1787.9224 -7440.0322 303.2946 -9227.9545 -7476.9564 299.1880 -744.9101 -605.9510 30516.4748 -55.8834 -5.1107
TCL: Running FEP window   8: Lambda1 0.35   Lambda2 0.39999999999999997 [dLambda 0.04999999999999999]
TCL: Setting parameter firsttimestep to 0
TCL: Setting parameter alchLambda to 0.35
Info: NONBONDED TABLE R-SQUARED SPACING: 0.0625
Info: NONBONDED TABLE SIZE: 705 POINTS
TCL: Setting parameter alchLambda2 to 0.39999999999999997
Info: NONBONDED TABLE R-SQUARED SPACING: 0.0625
Info: NONBONDED TABLE SIZE: 705 POINTS
TCL: Running for 1500000 steps
ETITLE: TS BOND ANGLE DIHED IMPRP ELECT VDW BOUNDARY MISC KINETIC TOTAL TEMP POTENTIAL TOTALAVG TEMPAVG PRESSURE GPRESSURE VOLUME PRESSAVG GPRESSAVG
ENERGY: 0 1.1962 12.7638 6.8295 0.0000 -10610.3649 1362.5037 0.0000 0.0000 1787.0362 -7440.0356 303.1443 -9227.0718 -7440.0356 303.1443 -685.2174 -594.4749 30516.4748 -685.2174 -594.4749
ENERGY: 300000 3.1644 12.9553 5.0326 0.0000 -10686.2960 1398.7804 0.0000 0.0000 1826.1913 -7440.1721 309.7864 -9266.3634 -7432.0485 301.9719 -422.6947 -368.5604 30148.2027 -338.4801 -274.1590
ENERGY: 600000 1.5796 11.3672 6.0032 0.0000 -10728.4603 1462.6427 0.0000 0.0000 1792.2682 -7454.5995 304.0318 -9246.8677 -7447.4332 302.3041 581.3968 657.3210 29724.1881 -110.3880 -33.9650
ENERGY: 900000 3.6744 16.8477 6.5334 0.0000 -10621.9820 1356.2200 0.0000 0.0000 1747.2383 -7491.4683 296.3932 -9238.7066 -7456.6849 301.2430 -530.1144 -509.7616 30180.3790 -39.6183 27.2487
ENERGY: 1200000 1.4152 8.9389 5.8540 0.0000 -10673.4621 1392.5452 0.0000 0.0000 1790.1408 -7474.5679 303.6709 -9264.7088 -7458.2848 301.4622 -479.8244 -417.4548 30479.7384 -29.3573 34.9827
ENERGY: 1500000 3.6864 13.3190 3.3904 0.0000 -10614.9353 1428.6698 0.0000 0.0000 1792.7078 -7373.1619 304.1064 -9165.8696 -7457.1588 301.0686 -66.1076 -21.8951 30572.3278 -56.5912 4.1093
TCL: Running FEP window   9: Lambda1 0.39999999999999997 Lambda2 0.44999999999999996 [dLambda 0.04999999999999999]
TCL: Setting parameter firsttimestep to 0
TCL: Setting parameter alchLambda to 0.39999999999999997
Info: NONBONDED TABLE R-SQUARED SPACING: 0.0625
Info: NONBONDED TABLE SIZE: 705 POINTS
TCL: Setting parameter alchLambda2 to 0.44999999999999996
Info: NONBONDED TABLE R-SQUARED SPACING: 0.0625
Info: NONBONDED TABLE SIZE: 705 POINTS
TCL: Running for 1500000 steps
ETITLE: TS BOND ANGLE DIHED IMPRP ELECT VDW BOUNDARY MISC KINETIC TOTAL TEMP POTENTIAL TOTALAVG TEMPAVG PRESSURE GPRESSURE VOLUME PRESSAVG GPRESSAVG
ENERGY: 0 3.6865 13.3191 3.3904 0.0000 -10614.9355 1428.5364 0.0000 0.0000 1791.8090 -7374.1942 303.9539 -9166.0032 -7374.1942 303.9539 -96.6449 -12.4326 30572.3278 -96.6449 -12.4326
ENERGY: 300000 1.9711 13.4423 5.1300 0.0000 -10691.6345 1383.7591 0.0000 0.0000 1764.1803 -7523.1517 299.2671 -9287.3320 -7413.8519 303.0502 -786.9715 -735.4437 30595.4004 -438.9336 -388.2901
ENERGY: 600000 0.7073 13.7762 6.7655 0.0000 -10798.3898 1523.5593 0.0000 0.0000 1773.3610 -7480.2205 300.8245 -9253.5814 -7430.4525 302.1972 628.8124 637.9325 30323.3105 -71.8746 -25.5203
ENERGY: 900000 1.9651 14.1984 7.6039 0.0000 -10746.2433 1488.4954 0.0000 0.0000 1768.3710 -7465.6096 299.9780 -9233.9806 -7439.8180 301.5263 553.3863 588.2327 29970.2017 -60.1915 -8.6821
ENERGY: 1200000 1.1636 14.3948 3.7592 0.0000 -10696.2688 1440.7216 0.0000 0.0000 1775.9426 -7460.2869 301.2624 -9236.2296 -7452.3434 300.7029 -17.9471 99.1954 30509.8311 29.3614 86.5527
ENERGY: 1500000 0.8408 7.9827 5.4520 0.0000 -10812.3199 1507.3830 0.0000 0.0000 1744.5274 -7546.1341 295.9333 -9290.6615 -7456.4772 300.4757 680.0091 781.4802 29618.8401 63.7244 126.3543
TCL: Running FEP window  10: Lambda1 0.44999999999999996 Lambda2 0.49999999999999994 [dLambda 0.04999999999999999]
TCL: Setting parameter firsttimestep to 0
TCL: Setting parameter alchLambda to 0.44999999999999996
Info: NONBONDED TABLE R-SQUARED SPACING: 0.0625
Info: NONBONDED TABLE SIZE: 705 POINTS
TCL: Setting parameter alchLambda2 to 0.49999999999999994
Info: NONBONDED TABLE R-SQUARED SPACING: 0.0625
Info: NONBONDED TABLE SIZE: 705 POINTS
TCL: Running for 1500000 steps
ETITLE: TS BOND ANGLE DIHED IMPRP ELECT VDW BOUNDARY MISC KINETIC TOTAL TEMP POTENTIAL TOTALAVG TEMPAVG PRESSURE GPRESSURE VOLUME PRESSAVG GPRESSAVG
ENERGY: 0 0.8408 7.9827 5.4520 0.0000 -10812.3197 1506.9073 0.0000 0.0000 1743.5954 -7547.5415 295.7752 -9291.1370 -7547.5415 295.7752 704.4357 785.8977 29618.8401 704.4357 785.8977
ENERGY: 300000 1.5330 13.3065 7.3439 0.0000 -10587.5033 1397.1586 0.0000 0.0000 1753.4098 -7414.7516 297.4401 -9168.1613 -7491.6909 298.4559 -193.0619 -112.2481 30465.9985 -15.1667 71.7848
ENERGY: 600000 6.1613 14.1274 6.0361 0.0000 -10699.8023 1418.7348 0.0000 0.0000 1744.8296 -7509.9130 295.9846 -9254.7426 -7499.6315 298.4048 -278.9657 -209.1430 30251.9614 -93.6979 -14.3453
ENERGY: 900000 1.5721 14.9256 7.2214 0.0000 -10638.0730 1387.3535 0.0000 0.0000 1766.7595 -7460.2409 299.7046 -9227.0004 -7506.0657 297.9503 -446.0021 -333.4030 30463.2742 -200.8639 -128.2130
ENERGY: 1200000 2.3971 12.6821 4.1136 0.0000 -10807.2700 1485.8612 0.0000 0.0000 1768.7600 -7533.4561 300.0440 -9302.2161 -7499.2584 298.6688 211.4632 250.3198 30139.8559 -155.6034 -81.1985
ENERGY: 1500000 3.4598 13.5655 4.9605 0.0000 -10460.6019 1311.7276 0.0000 0.0000 1803.6470 -7323.2415 305.9621 -9126.8885 -7485.6810 298.7362 -598.4451 -610.3967 30296.5261 -123.2530 -56.2172
TCL: Running FEP window  11: Lambda1 0.49999999999999994 Lambda2 0.5499999999999999 [dLambda 0.04999999999999999]
TCL: Setting parameter firsttimestep to 0
TCL: Setting parameter alchLambda to 0.49999999999999994
Info: NONBONDED TABLE R-SQUARED SPACING: 0.0625
Info: NONBONDED TABLE SIZE: 705 POINTS
TCL: Setting parameter alchLambda2 to 0.5499999999999999
Info: NONBONDED TABLE R-SQUARED SPACING: 0.0625
Info: NONBONDED TABLE SIZE: 705 POINTS
TCL: Running for 1500000 steps
ETITLE: TS BOND ANGLE DIHED IMPRP ELECT VDW BOUNDARY MISC KINETIC TOTAL TEMP POTENTIAL TOTALAVG TEMPAVG PRESSURE GPRESSURE VOLUME PRESSAVG GPRESSAVG
ENERGY: 0 3.4598 13.5655 4.9605 0.0000 -10460.5997 1311.8747 0.0000 0.0000 1802.7718 -7323.9674 305.8136 -9126.7392 -7323.9674 305.8136 -678.2148 -599.6010 30296.5261 -678.2148 -599.6010
ENERGY: 300000 3.2144 11.8623 5.8477 0.0000 -10681.2253 1426.5396 0.0000 0.0000 1748.5241 -7485.2373 296.6113 -9233.7614 -7439.1341 300.6898 -309.8591 -241.7889 30822.9569 -203.7261 -115.8919
ENERGY: 600000 2.4526 10.4931 7.1072 0.0000 -10662.6949 1433.7658 0.0000 0.0000 1833.6734 -7375.2028 311.0556 -9208.8762 -7427.7716 304.0128 254.5058 275.7745 30026.5455 0.1770 76.9406
ENERGY: 900000 2.7415 15.2303 5.9471 0.0000 -10635.8086 1387.4819 0.0000 0.0000 1744.0372 -7480.3706 295.8501 -9224.4078 -7430.5479 303.3638 -500.3705 -453.5410 30589.6279 -162.0272 -83.8139
ENERGY: 1200000 2.7406 10.8201 4.7830 0.0000 -10664.2488 1388.0575 0.0000 0.0000 1780.5839 -7477.2636 302.0498 -9257.8476 -7443.1426 303.0097 -319.5179 -285.5879 30702.3347 -195.9931 -124.8650
ENERGY: 1500000 3.2024 10.2276 2.8966 0.0000 -10699.1437 1486.2323 0.0000 0.0000 1835.7400 -7360.8448 311.4062 -9196.5847 -7438.1176 303.0669 594.3904 688.9153 30083.0446 -165.7858 -95.2588
TCL: Running FEP window  12: Lambda1 0.5499999999999999 Lambda2 0.6    [dLambda 0.050000000000000044]
TCL: Setting parameter firsttimestep to 0
TCL: Setting parameter alchLambda to 0.5499999999999999
Info: NONBONDED TABLE R-SQUARED SPACING: 0.0625
Info: NONBONDED TABLE SIZE: 705 POINTS
TCL: Setting parameter alchLambda2 to 0.6
Info: NONBONDED TABLE R-SQUARED SPACING: 0.0625
Info: NONBONDED TABLE SIZE: 705 POINTS
TCL: Running for 1500000 steps
ETITLE: TS BOND ANGLE DIHED IMPRP ELECT VDW BOUNDARY MISC KINETIC TOTAL TEMP POTENTIAL TOTALAVG TEMPAVG PRESSURE GPRESSURE VOLUME PRESSAVG GPRESSAVG
ENERGY: 0 3.2024 10.2276 2.8966 0.0000 -10699.0572 1486.6919 0.0000 0.0000 1834.8450 -7361.1938 311.2543 -9196.0388 -7361.1938 311.2543 617.2999 701.5920 30083.0446 617.2999 701.5920
ENERGY: 300000 1.7110 9.9714 3.1268 0.0000 -10769.6675 1551.7070 0.0000 0.0000 1750.4133 -7452.7381 296.9317 -9203.1514 -7430.4705 302.2500 974.2144 983.3220 30540.9221 408.9766 474.2189
ENERGY: 600000 4.7454 11.1754 5.5677 0.0000 -10519.7864 1343.3600 0.0000 0.0000 1759.0339 -7395.9040 298.3941 -9154.9379 -7430.1898 300.4600 -621.2566 -489.3688 30611.2831 100.3778 178.1914
ENERGY: 900000 1.6278 14.4310 6.1019 0.0000 -10817.9979 1534.2458 0.0000 0.0000 1790.5720 -7471.0194 303.7441 -9261.5914 -7442.4110 301.0674 611.8312 673.4884 30639.9520 178.8098 261.0238
ENERGY: 1200000 4.2019 8.2839 4.8149 0.0000 -10755.9134 1520.4459 0.0000 0.0000 1775.5184 -7442.6484 301.1905 -9218.1667 -7450.5486 301.3144 560.3193 684.1542 30550.9109 191.5396 267.6332
ENERGY: 1500000 4.0767 8.9314 4.9847 0.0000 -10861.5750 1559.7570 0.0000 0.0000 1742.9359 -7540.8894 295.6633 -9283.8252 -7459.9369 301.0827 866.9174 906.4478 30291.5714 312.4719 391.7878
TCL: Running FEP window  13: Lambda1 0.6    Lambda2 0.65   [dLambda 0.050000000000000044]
TCL: Setting parameter firsttimestep to 0
TCL: Setting parameter alchLambda to 0.6
Info: NONBONDED TABLE R-SQUARED SPACING: 0.0625
Info: NONBONDED TABLE SIZE: 705 POINTS
TCL: Setting parameter alchLambda2 to 0.65
Info: NONBONDED TABLE R-SQUARED SPACING: 0.0625
Info: NONBONDED TABLE SIZE: 705 POINTS
TCL: Running for 1500000 steps
ETITLE: TS BOND ANGLE DIHED IMPRP ELECT VDW BOUNDARY MISC KINETIC TOTAL TEMP POTENTIAL TOTALAVG TEMPAVG PRESSURE GPRESSURE VOLUME PRESSAVG GPRESSAVG
ENERGY: 0 4.0767 8.9314 4.9847 0.0000 -10861.7059 1559.2888 0.0000 0.0000 1742.0846 -7542.3396 295.5189 -9284.4242 -7542.3396 295.5189 823.2683 912.4896 30291.5714 823.2683 912.4896
ENERGY: 300000 2.5527 11.0226 4.8025 0.0000 -10647.1879 1382.2400 0.0000 0.0000 1812.8950 -7433.6750 307.5309 -9246.5701 -7458.2273 303.1231 -588.9581 -518.9281 30761.4574 -47.5390 21.1868
ENERGY: 600000 2.0248 16.2287 7.4469 0.0000 -10640.9356 1350.2625 0.0000 0.0000 1788.1661 -7476.8066 303.3360 -9264.9727 -7479.7588 301.3006 -678.4070 -634.3925 30512.8652 -229.8794 -163.7377
ENERGY: 900000 1.4293 15.8003 5.5231 0.0000 -10783.8531 1532.8036 0.0000 0.0000 1762.5964 -7465.7004 298.9984 -9228.2968 -7484.9265 300.0291 683.0491 787.2178 30483.9964 -115.8470 -54.9347
ENERGY: 1200000 3.1100 9.2778 5.0568 0.0000 -10731.8860 1519.3535 0.0000 0.0000 1809.1653 -7385.9227 306.8982 -9195.0880 -7474.1684 301.7541 975.9276 1056.4339 30183.8908 -107.5883 -48.3301
ENERGY: 1500000 1.7288 8.2897 6.4214 0.0000 -10663.8992 1416.2623 0.0000 0.0000 1772.7539 -7458.4431 300.7215 -9231.1970 -7471.2971 302.4827 275.0919 298.3068 29892.0963 -53.6959 -0.9411
TCL: Running FEP window  14: Lambda1 0.65   Lambda2 0.7000000000000001 [dLambda 0.050000000000000044]
TCL: Setting parameter firsttimestep to 0
TCL: Setting parameter alchLambda to 0.65
Info: NONBONDED TABLE R-SQUARED SPACING: 0.0625
Info: NONBONDED TABLE SIZE: 705 POINTS
TCL: Setting parameter alchLambda2 to 0.7000000000000001
Info: NONBONDED TABLE R-SQUARED SPACING: 0.0625
Info: NONBONDED TABLE SIZE: 705 POINTS
TCL: Running for 1500000 steps
ETITLE: TS BOND ANGLE DIHED IMPRP ELECT VDW BOUNDARY MISC KINETIC TOTAL TEMP POTENTIAL TOTALAVG TEMPAVG PRESSURE GPRESSURE VOLUME PRESSAVG GPRESSAVG
ENERGY: 0 1.7288 8.2897 6.4214 0.0000 -10664.8373 1417.0778 0.0000 0.0000 1771.8454 -7459.4742 300.5674 -9231.3196 -7459.4742 300.5674 245.7300 314.4424 29892.0963 245.7300 314.4424
ENERGY: 300000 2.2384 15.2344 4.8399 0.0000 -10778.9165 1524.9456 0.0000 0.0000 1763.5139 -7468.1443 299.1541 -9231.6582 -7437.5924 300.1116 772.0691 809.6045 30135.1605 100.7811 164.5399
ENERGY: 600000 3.0740 9.0893 7.8146 0.0000 -10673.5620 1412.4454 0.0000 0.0000 1740.1916 -7500.9471 295.1978 -9241.1387 -7471.0877 298.8053 -606.1770 -554.1035 30706.3640 12.0700 69.7013
ENERGY: 900000 1.5188 11.7534 5.2090 0.0000 -10660.7574 1387.0254 0.0000 0.0000 1767.7350 -7487.5159 299.8701 -9255.2509 -7473.1313 298.8626 -450.5474 -399.7186 30413.2184 -176.4545 -107.4276
ENERGY: 1200000 1.7368 8.9983 5.5155 0.0000 -10809.6005 1502.0734 0.0000 0.0000 1796.5064 -7494.7701 304.7508 -9291.2765 -7471.8325 299.4822 280.6370 242.1395 30728.5165 -149.2437 -93.4574
ENERGY: 1500000 2.3713 14.1028 4.2599 0.0000 -10784.3782 1466.4010 0.0000 0.0000 1799.3715 -7497.8718 305.2368 -9297.2433 -7468.8872 300.0999 192.0711 225.4535 29794.5084 -174.5370 -117.3091
TCL: Running FEP window  15: Lambda1 0.7000000000000001 Lambda2 0.7500000000000001 [dLambda 0.050000000000000044]
TCL: Setting parameter firsttimestep to 0
TCL: Setting parameter alchLambda to 0.7000000000000001
Info: NONBONDED TABLE R-SQUARED SPACING: 0.0625
Info: NONBONDED TABLE SIZE: 705 POINTS
TCL: Setting parameter alchLambda2 to 0.7500000000000001
Info: NONBONDED TABLE R-SQUARED SPACING: 0.0625
Info: NONBONDED TABLE SIZE: 705 POINTS
TCL: Running for 1500000 steps
ETITLE: TS BOND ANGLE DIHED IMPRP ELECT VDW BOUNDARY MISC KINETIC TOTAL TEMP POTENTIAL TOTALAVG TEMPAVG PRESSURE GPRESSURE VOLUME PRESSAVG GPRESSAVG
ENERGY: 0 2.3713 14.1028 4.2599 0.0000 -10785.8286 1466.9626 0.0000 0.0000 1798.4867 -7499.6452 305.0867 -9298.1320 -7499.6452 305.0867 134.8234 238.3712 29794.5084 134.8234 238.3712
ENERGY: 300000 2.7085 12.7536 5.3985 0.0000 -10491.6022 1305.4402 0.0000 0.0000 1775.2900 -7390.0115 301.1517 -9165.3015 -7452.5174 299.8895 -942.0626 -875.3267 30854.7477 -209.5505 -130.8310
ENERGY: 600000 3.8445 13.1415 5.5703 0.0000 -10804.7558 1496.2562 0.0000 0.0000 1819.7775 -7466.1659 308.6984 -9285.9433 -7471.5044 300.3162 189.3835 236.6367 30708.5141 -255.0292 -189.6187
ENERGY: 900000 4.1210 8.8199 4.9418 0.0000 -10775.2700 1492.0236 0.0000 0.0000 1782.9992 -7482.3645 302.4595 -9265.3637 -7472.3317 299.8983 614.8382 621.3592 29984.4465 -221.4781 -156.6369
ENERGY: 1200000 2.5429 13.5992 4.7091 0.0000 -10752.1974 1429.5964 0.0000 0.0000 1834.8230 -7466.9267 311.2506 -9301.7497 -7462.2764 301.1612 -228.1702 -105.7586 30142.5822 -156.9363 -83.0086
ENERGY: 1500000 2.0535 9.7153 3.8876 0.0000 -10655.0697 1331.9840 0.0000 0.0000 1801.7266 -7505.7026 305.6363 -9307.4292 -7463.3991 301.7903 -1180.8945 -1126.9418 30852.1750 -216.4505 -144.9528
TCL: Running FEP window  16: Lambda1 0.7500000000000001 Lambda2 0.8000000000000002 [dLambda 0.050000000000000044]
TCL: Setting parameter firsttimestep to 0
TCL: Setting parameter alchLambda to 0.7500000000000001
Info: NONBONDED TABLE R-SQUARED SPACING: 0.0625
Info: NONBONDED TABLE SIZE: 705 POINTS
TCL: Setting parameter alchLambda2 to 0.8000000000000002
Info: NONBONDED TABLE R-SQUARED SPACING: 0.0625
Info: NONBONDED TABLE SIZE: 705 POINTS
TCL: Running for 1500000 steps
ETITLE: TS BOND ANGLE DIHED IMPRP ELECT VDW BOUNDARY MISC KINETIC TOTAL TEMP POTENTIAL TOTALAVG TEMPAVG PRESSURE GPRESSURE VOLUME PRESSAVG GPRESSAVG
ENERGY: 0 2.0535 9.7153 3.8876 0.0000 -10655.7687 1331.5676 0.0000 0.0000 1800.8710 -7507.6737 305.4911 -9308.5446 -7507.6737 305.4911 -1212.7713 -1120.7729 30852.1750 -1212.7713 -1120.7729
ENERGY: 300000 1.2519 12.3498 4.2101 0.0000 -10784.4245 1535.2328 0.0000 0.0000 1794.2607 -7437.1192 304.3698 -9231.3799 -7472.7123 302.6158 1080.0947 1033.3668 30374.9820 18.9092 67.7183
ENERGY: 600000 2.5562 14.8281 4.0503 0.0000 -10565.3716 1375.4989 0.0000 0.0000 1787.5233 -7380.9148 303.2269 -9168.4381 -7468.3672 300.2247 -331.5432 -265.7352 30531.4962 -241.6830 -180.9958
ENERGY: 900000 2.3303 9.9427 5.7965 0.0000 -10776.5790 1478.1931 0.0000 0.0000 1817.2604 -7463.0562 308.2714 -9280.3165 -7472.3338 300.1769 172.5934 226.1677 30406.9122 -150.5221 -93.4535
ENERGY: 1200000 2.9410 12.2095 8.0318 0.0000 -10828.8177 1485.8634 0.0000 0.0000 1734.5935 -7585.1785 294.2482 -9319.7720 -7496.5317 298.0066 86.3763 132.5018 30518.1416 -160.8999 -104.7410
ENERGY: 1500000 1.9281 9.0315 5.5661 0.0000 -10712.8519 1476.3027 0.0000 0.0000 1732.6513 -7487.3722 293.9187 -9220.0235 -7494.2171 297.6325 68.4350 179.4659 30779.3044 -146.6804 -88.9002
TCL: Running FEP window  17: Lambda1 0.8000000000000002 Lambda2 0.8500000000000002 [dLambda 0.050000000000000044]
TCL: Setting parameter firsttimestep to 0
TCL: Setting parameter alchLambda to 0.8000000000000002
Info: NONBONDED TABLE R-SQUARED SPACING: 0.0625
Info: NONBONDED TABLE SIZE: 705 POINTS
TCL: Setting parameter alchLambda2 to 0.8500000000000002
Info: NONBONDED TABLE R-SQUARED SPACING: 0.0625
Info: NONBONDED TABLE SIZE: 705 POINTS
TCL: Running for 1500000 steps
ETITLE: TS BOND ANGLE DIHED IMPRP ELECT VDW BOUNDARY MISC KINETIC TOTAL TEMP POTENTIAL TOTALAVG TEMPAVG PRESSURE GPRESSURE VOLUME PRESSAVG GPRESSAVG
ENERGY: 0 1.9281 9.0315 5.5661 0.0000 -10713.9995 1477.0981 0.0000 0.0000 1731.7714 -7488.6043 293.7694 -9220.3758 -7488.6043 293.7694 102.8610 200.6226 30779.3044 102.8610 200.6226
ENERGY: 300000 1.1611 6.9844 5.3732 0.0000 -10652.9337 1392.8274 0.0000 0.0000 1787.7927 -7458.7949 303.2726 -9246.5876 -7484.3762 300.9542 -236.3514 -162.2897 30527.3117 24.3744 70.0654
ENERGY: 600000 2.7383 11.1015 4.5781 0.0000 -10681.0849 1416.4900 0.0000 0.0000 1765.9989 -7480.1781 299.5756 -9246.1770 -7461.6010 302.3752 -264.0686 -211.6977 30633.2776 -90.7616 -38.3916
ENERGY: 900000 2.1927 14.1009 4.5630 0.0000 -10758.2758 1521.0136 0.0000 0.0000 1745.8626 -7470.5431 296.1598 -9216.4056 -7464.3987 302.1846 795.9457 929.7791 30136.4056 102.8768 163.6439
ENERGY: 1200000 2.2099 13.9488 3.4617 0.0000 -10598.5161 1344.9046 0.0000 0.0000 1824.0247 -7409.9664 309.4188 -9233.9911 -7460.3968 301.6883 -575.9081 -471.7208 30520.7238 -8.5625 59.2588
ENERGY: 1500000 0.9841 10.9017 3.3234 0.0000 -10672.2938 1378.7424 0.0000 0.0000 1769.6327 -7508.7095 300.1920 -9278.3422 -7462.9419 301.0171 -468.6555 -414.1407 30580.2908 -31.3291 33.5268
TCL: Running FEP window  18: Lambda1 0.8500000000000002 Lambda2 0.9000000000000002 [dLambda 0.050000000000000044]
TCL: Setting parameter firsttimestep to 0
TCL: Setting parameter alchLambda to 0.8500000000000002
Info: NONBONDED TABLE R-SQUARED SPACING: 0.0625
Info: NONBONDED TABLE SIZE: 705 POINTS
TCL: Setting parameter alchLambda2 to 0.9000000000000002
Info: NONBONDED TABLE R-SQUARED SPACING: 0.0625
Info: NONBONDED TABLE SIZE: 705 POINTS
TCL: Running for 1500000 steps
ETITLE: TS BOND ANGLE DIHED IMPRP ELECT VDW BOUNDARY MISC KINETIC TOTAL TEMP POTENTIAL TOTALAVG TEMPAVG PRESSURE GPRESSURE VOLUME PRESSAVG GPRESSAVG
ENERGY: 0 0.9841 10.9017 3.3234 0.0000 -10672.8638 1378.8764 0.0000 0.0000 1768.7099 -7510.0682 300.0355 -9278.7782 -7510.0682 300.0355 -483.9409 -400.7583 30580.2908 -483.9409 -400.7583
ENERGY: 300000 1.8142 13.0738 6.3236 0.0000 -10648.2409 1382.3584 0.0000 0.0000 1768.0533 -7476.6175 299.9241 -9244.6708 -7472.1896 302.4990 -414.8067 -272.3695 30540.5231 -441.3284 -333.2426
ENERGY: 600000 5.7686 10.9392 3.8084 0.0000 -10694.0458 1459.8375 0.0000 0.0000 1767.9923 -7445.6997 299.9138 -9213.6920 -7470.9748 299.3252 324.7242 365.2834 30238.8299 -460.7137 -367.7181
ENERGY: 900000 3.6610 12.2548 5.2688 0.0000 -10634.0147 1419.5608 0.0000 0.0000 1788.9826 -7404.2868 303.4745 -9193.2693 -7453.8139 301.1613 -93.9951 -37.7100 30706.1934 -328.6675 -236.9362
ENERGY: 1200000 2.3734 12.3721 6.3834 0.0000 -10499.1614 1331.6046 0.0000 0.0000 1777.1954 -7369.2326 301.4749 -9146.4280 -7439.3972 302.0724 -880.0777 -802.2331 31157.2809 -328.2560 -243.4283
ENERGY: 1500000 2.0420 11.8949 6.5562 0.0000 -10730.4543 1448.9474 0.0000 0.0000 1812.4162 -7448.5976 307.4496 -9261.0138 -7447.7742 302.8432 20.3103 64.1268 30646.8850 -257.2258 -175.8122
TCL: Running FEP window  19: Lambda1 0.9000000000000002 Lambda2 0.9500000000000003 [dLambda 0.050000000000000044]
TCL: Setting parameter firsttimestep to 0
TCL: Setting parameter alchLambda to 0.9000000000000002
Info: NONBONDED TABLE R-SQUARED SPACING: 0.0625
Info: NONBONDED TABLE SIZE: 705 POINTS
TCL: Setting parameter alchLambda2 to 0.9500000000000003
Info: NONBONDED TABLE R-SQUARED SPACING: 0.0625
Info: NONBONDED TABLE SIZE: 705 POINTS
TCL: Running for 1500000 steps
ETITLE: TS BOND ANGLE DIHED IMPRP ELECT VDW BOUNDARY MISC KINETIC TOTAL TEMP POTENTIAL TOTALAVG TEMPAVG PRESSURE GPRESSURE VOLUME PRESSAVG GPRESSAVG
ENERGY: 0 2.0420 11.8949 6.5562 0.0000 -10732.0418 1449.7568 0.0000 0.0000 1811.5007 -7450.2912 307.2943 -9261.7919 -7450.2912 307.2943 5.5098 81.7848 30646.8850 5.5098 81.7848
ENERGY: 300000 3.1225 10.0794 7.3304 0.0000 -10710.5500 1396.4585 0.0000 0.0000 1797.6217 -7495.9375 304.9400 -9293.5592 -7431.0144 305.3552 -548.9887 -466.2828 30550.0764 -219.5662 -159.0755
ENERGY: 600000 4.4589 13.2233 5.0627 0.0000 -10713.4055 1472.4976 0.0000 0.0000 1713.0273 -7505.1355 290.5898 -9218.1629 -7443.3761 301.3730 135.0149 188.7474 30549.2757 -49.0589 10.3098
ENERGY: 900000 1.0559 12.2234 4.6048 0.0000 -10637.2491 1454.8023 0.0000 0.0000 1794.2393 -7370.3235 304.3662 -9164.5628 -7434.7467 301.8128 391.6694 417.6926 30448.7266 -7.0321 44.2263
ENERGY: 1200000 3.2587 12.5365 5.0294 0.0000 -10807.0089 1583.4646 0.0000 0.0000 1755.7625 -7446.9573 297.8392 -9202.7198 -7441.0375 300.5320 1284.4719 1402.1993 30385.9988 8.2877 58.9931
ENERGY: 1500000 1.0265 7.1419 4.5580 0.0000 -10503.8543 1235.2925 0.0000 0.0000 1781.7836 -7474.0518 302.2533 -9255.8354 -7442.8060 300.3482 -1578.1233 -1519.1484 30753.6779 -128.7991 -80.1341
TCL: Running FEP window  20: Lambda1 0.9500000000000003 Lambda2 1.0    [dLambda 0.04999999999999971]
TCL: Setting parameter firsttimestep to 0
TCL: Setting parameter alchLambda to 0.9500000000000003
Info: NONBONDED TABLE R-SQUARED SPACING: 0.0625
Info: NONBONDED TABLE SIZE: 705 POINTS
TCL: Setting parameter alchLambda2 to 1.0
Info: NONBONDED TABLE R-SQUARED SPACING: 0.0625
Info: NONBONDED TABLE SIZE: 705 POINTS
TCL: Running for 1500000 steps
ETITLE: TS BOND ANGLE DIHED IMPRP ELECT VDW BOUNDARY MISC KINETIC TOTAL TEMP POTENTIAL TOTALAVG TEMPAVG PRESSURE GPRESSURE VOLUME PRESSAVG GPRESSAVG
ENERGY: 0 1.0265 7.1419 4.5580 0.0000 -10505.1140 1235.6791 0.0000 0.0000 1780.9050 -7475.8035 302.1042 -9256.7085 -7475.8035 302.1042 -1587.3622 -1504.3271 30753.6779 -1587.3622 -1504.3271
ENERGY: 300000 2.3984 10.2812 5.3304 0.0000 -10603.7524 1373.9003 0.0000 0.0000 1774.3190 -7437.5230 300.9870 -9211.8420 -7429.4291 301.1227 -420.8580 -336.1722 30834.7341 -699.9536 -631.3979
ENERGY: 600000 2.4381 9.7582 5.4419 0.0000 -10691.6248 1424.6469 0.0000 0.0000 1733.5527 -7515.7871 294.0716 -9249.3397 -7463.3581 297.6439 -167.6921 -134.5796 30460.6493 -400.0419 -347.3701
ENERGY: 900000 2.4769 13.3264 7.3812 0.0000 -10608.9376 1352.4012 0.0000 0.0000 1771.4094 -7461.9425 300.4934 -9233.3519 -7467.3150 298.5396 -105.7013 -9.4893 29726.7871 -464.9814 -408.7855
ENERGY: 1200000 6.4719 11.6017 4.8259 0.0000 -10781.3955 1513.9802 0.0000 0.0000 1730.3354 -7514.1803 293.5258 -9244.5157 -7486.0754 297.8222 858.0165 962.3236 29577.3967 -301.9158 -247.1556
ENERGY: 1500000 2.8026 10.3667 5.7224 0.0000 -10606.0067 1339.0564 0.0000 0.0000 1760.3860 -7487.6726 298.6235 -9248.0586 -7491.2596 298.0826 -648.3709 -525.5290 30279.6392 -256.7289 -195.3504
TCL: Exiting due to exit command.
