Info: SIMULATION PARAMETERS:
Info: TIMESTEP               2
Info: NUMBER OF STEPS        0
Info: STEPS PER CYCLE        10
Info: PERIODIC CELL BASIS 1  33.1671 0 0
Info: PERIODIC CELL BASIS 2  0 28.4917 0
Info: PERIODIC CELL BASIS 3  0 0 32.072
Info: PERIODIC CELL CENTER   0 0 0
Info: WRAPPING WATERS AROUND PERIODIC BOUNDARIES ON OUTPUT.
Info: WRAPPING ALL CLUSTERS AROUND PERIODIC BOUNDARIES ON OUTPUT.
Info: FIRST LDB TIMESTEP     50
Info: LAST LDB TIMESTEP     -1
Info: HOM BACKGROUND SCALING 1
Info: PME BACKGROUND SCALING 1
Info: MIN ATOMS PER PATCH    40
Info: EMPTY PATCH LOAD       40 ATOMS
Info: VELOCITY FILE          mobley_4934872_equil.vel
Info: CENTER OF MASS MOVING INITIALLY? NO
Info: DIELECTRIC             1
Info: EXCLUDE                SCALED ONE-FOUR
Info: 1-4 ELECTROSTATICS SCALED BY 0.833333
Info: MODIFIED 1-4 VDW PARAMETERS WILL BE USED
Info: DCD FILENAME           mobley_4934872_prod.dcd
Info: DCD FREQUENCY          100000
Info: DCD FIRST STEP         100000
Info: DCD FILE WILL CONTAIN UNIT CELL DATA
Info: XST FILENAME           mobley_4934872_prod.xst
Info: XST FREQUENCY          100000
Info: NO VELOCITY DCD OUTPUT
Info: NO FORCE DCD OUTPUT
Info: OUTPUT FILENAME        mobley_4934872_prod
Info: BINARY OUTPUT FILES WILL BE USED
Info: RESTART FILENAME       mobley_4934872_prod.restart
Info: RESTART FREQUENCY      100000
Info: BINARY RESTART FILES WILL BE USED
Info: CUTOFF                 9
Info: PAIRLIST DISTANCE      11
Info: PAIRLIST SHRINK RATE   0.01
Info: PAIRLIST GROW RATE     0.01
Info: PAIRLIST TRIGGER       0.3
Info: PAIRLISTS PER CYCLE    2
Info: PAIRLISTS ENABLED
Info: MARGIN                 2
Info: HYDROGEN GROUP CUTOFF  2.5
Info: PATCH DIMENSION        15.5
Info: ENERGY OUTPUT STEPS    100000
Info: ENERGY EVALUATION STEPS    100000
Info: OUTPUT ENERGY PRECISION 4
Info: CROSSTERM ENERGY INCLUDED IN DIHEDRAL
Info: TIMING OUTPUT STEPS    1000000
Info: PRESSURE OUTPUT STEPS  100000
Info: ALCHEMICAL FEP ON
Info: FEP CURRENT LAMBDA VALUE     1
Info: FEP COMPARISON LAMBDA VALUE  0.95
Info: FEP INTRA-ALCHEMICAL NON-BONDED INTERACTIONS WILL BE RETAINED
Info: FEP INTRA-ALCHEMICAL BONDED INTERACTIONS WILL BE RETAINED
Info: FEP VDW SHIFTING COEFFICIENT 5
Info: FEP ELEC. ACTIVE FOR ANNIHILATED PARTICLES BETWEEN LAMBDA = 0 AND LAMBDA = 0.5
Info: FEP ELEC. ACTIVE FOR EXNIHILATED PARTICLES BETWEEN LAMBDA = 0.5 AND LAMBDA = 1
Info: FEP VDW ACTIVE FOR ANNIHILATED PARTICLES BETWEEN LAMBDA = 0 AND LAMBDA = 1
Info: FEP VDW ACTIVE FOR EXNIHILATED PARTICLES BETWEEN LAMBDA = 0 AND LAMBDA = 1
Info: FEP BOND ACTIVE FOR ANNIHILATED PARTICLES BETWEEN LAMBDA = 1 AND LAMBDA = 1
Info: FEP BOND ACTIVE FOR EXNIHILATED PARTICLES BETWEEN LAMBDA = 0 AND LAMBDA = 0
Info: LANGEVIN DYNAMICS ACTIVE
Info: LANGEVIN TEMPERATURE   300
Info: LANGEVIN USING BBK INTEGRATOR
Info: LANGEVIN DAMPING COEFFICIENT IS 1 INVERSE PS
Info: LANGEVIN DYNAMICS APPLIED TO HYDROGENS
Info: LANGEVIN PISTON PRESSURE CONTROL ACTIVE
Info:        TARGET PRESSURE IS 1.01325 BAR
Info:     OSCILLATION PERIOD IS 50 FS
Info:             DECAY TIME IS 25 FS
Info:     PISTON TEMPERATURE IS 300 K
Info:       PRESSURE CONTROL IS GROUP-BASED
Info:    INITIAL STRAIN RATE IS -0.000217185 -0.000217185 -0.000217185
Info:       CELL FLUCTUATION IS ISOTROPIC
Info: PARTICLE MESH EWALD (PME) ACTIVE
Info: PME TOLERANCE               1e-06
Info: PME EWALD COEFFICIENT       0.348832
Info: PME INTERPOLATION ORDER     4
Info: PME GRID DIMENSIONS         36 32 36
Info: PME MAXIMUM GRID SPACING    1
Info: PME CALCULATION WILL BE PERFORMED ON GPU
Info: FULL ELECTROSTATIC EVALUATION FREQUENCY      2
Info: USING VERLET I (r-RESPA) MTS SCHEME.
Info: C1 SPLITTING OF LONG RANGE ELECTROSTATICS
Info: PLACING ATOMS IN PATCHES BY HYDROGEN GROUPS
Info: RIGID BONDS TO HYDROGEN : ALL
Info:         ERROR TOLERANCE : 1e-08
Info:          MAX ITERATIONS : 100
Info: RIGID WATER USING SETTLE ALGORITHM
Info: RANDOM NUMBER SEED     1744073599
Info: USE HYDROGEN BONDS?    NO
Info: Using AMBER format force field!
Info: AMBER PARM FILE        mobley_4934872.prmtop
Info: COORDINATE PDB         mobley_4934872.pdb
Info: Exclusions will be read from PARM file!
Info: SCNB (VDW SCALING)     2
Info: USING ARITHMETIC MEAN TO COMBINE L-J SIGMA PARAMETERS
Info: BINARY COORDINATES     mobley_4934872_equil.coor
Info: SUMMARY OF PARAMETERS:
Info: 10 BONDS
Info: 13 ANGLES
Info:   13 HARMONIC
Info:   0 COSINE-BASED
Info: 12 DIHEDRAL
Info: 0 IMPROPER
Info: 0 CROSSTERM
Info: 0 VDW
Info: 45 VDW_PAIRS
Info: 0 NBTHOLE_PAIRS
Info: To read alchdata from file: mobley_4934872.pdb
Info: To read alchflag data from column: 5
Info: STRUCTURE SUMMARY:
Info: 2934 ATOMS
Info: 2934 BONDS
Info: 51 ANGLES
Info: 81 DIHEDRALS
Info: 0 IMPROPERS
Info: 0 CROSSTERMS
Info: 3041 EXCLUSIONS
Info: 2920 RIGID BONDS
Info: ALCH: 0 ATOMS TO DISAPPEAR IN FINAL STATE
Info: ALCH: 30 ATOMS TO APPEAR IN FINAL STATE
Info: 5882 DEGREES OF FREEDOM
Info: 982 HYDROGEN GROUPS
Info: 4 ATOMS IN LARGEST HYDROGEN GROUP
Info: 982 MIGRATION GROUPS
Info: 4 ATOMS IN LARGEST MIGRATION GROUP
Info: TOTAL MASS = 17635.7 amu
Info: TOTAL CHARGE = -0.000199988 e
Info: MASS DENSITY = 0.966278 g/cm^3
Info: ATOM DENSITY = 0.0968076 atoms/A^3
Info: ADDED 0 IMPLICIT EXCLUSIONS
Info: NONBONDED TABLE R-SQUARED SPACING: 0.0625
Info: NONBONDED TABLE SIZE: 705 POINTS
Info: REMOVING COM VELOCITY -0.178533 0.0936597 0.141615
Info: Use 3D box decompostion in PME FFT.
Info: Updated CUDA force table with 4096 elements.
Info: Updated CUDA LJ table with 9 x 9 elements.
Info: Found 29 unique exclusion lists needing 116 bytes
TCL: Running for 1500000 steps
ETITLE: TS BOND ANGLE DIHED IMPRP ELECT VDW BOUNDARY MISC KINETIC TOTAL TEMP POTENTIAL TOTALAVG TEMPAVG PRESSURE GPRESSURE VOLUME PRESSAVG GPRESSAVG
ENERGY: 0 3.5618 9.9573 14.8682 0.0000 -10583.5404 1391.2662 0.0000 0.0000 1764.5374 -7399.3495 301.9230 -9163.8869 -7399.3495 301.9230 -234.1227 -143.3699 30307.5380 -234.1227 -143.3699
ENERGY: 300000 5.8758 14.0760 17.2443 0.0000 -10720.3565 1483.8827 0.0000 0.0000 1745.2553 -7454.0223 298.6237 -9199.2777 -7392.3262 301.8258 578.7044 633.7783 30089.9195 -56.8751 29.1679
ENERGY: 600000 4.5638 12.4272 20.8162 0.0000 -10659.0606 1488.0937 0.0000 0.0000 1740.4901 -7392.6696 297.8084 -9133.1597 -7405.6830 300.2420 635.9418 693.0388 30431.0229 154.8263 229.2164
ENERGY: 900000 2.8373 13.7483 15.1745 0.0000 -10463.7969 1293.0547 0.0000 0.0000 1727.8396 -7411.1425 295.6438 -9138.9821 -7402.1063 300.0267 -959.1761 -922.9122 30411.3748 -20.1581 46.2930
ENERGY: 1200000 7.0508 13.1802 15.3400 0.0000 -10627.6554 1439.2319 0.0000 0.0000 1723.4833 -7429.3692 294.8984 -9152.8525 -7403.7698 300.2558 -136.6788 -93.0146 30402.5668 -61.3338 10.0262
ENERGY: 1500000 4.8802 9.6861 19.3344 0.0000 -10523.9462 1355.8821 0.0000 0.0000 1735.9089 -7398.2545 297.0245 -9134.1634 -7413.3812 299.7791 -398.0254 -272.3160 30129.6428 -78.9248 3.2929
TCL: Running FEP window   2: Lambda1 0.95   Lambda2 0.8999999999999999 [dLambda -0.050000000000000044]
TCL: Setting parameter firsttimestep to 0
TCL: Setting parameter alchLambda to 0.95
Info: NONBONDED TABLE R-SQUARED SPACING: 0.0625
Info: NONBONDED TABLE SIZE: 705 POINTS
TCL: Setting parameter alchLambda2 to 0.8999999999999999
Info: NONBONDED TABLE R-SQUARED SPACING: 0.0625
Info: NONBONDED TABLE SIZE: 705 POINTS
TCL: Running for 1500000 steps
ETITLE: TS BOND ANGLE DIHED IMPRP ELECT VDW BOUNDARY MISC KINETIC TOTAL TEMP POTENTIAL TOTALAVG TEMPAVG PRESSURE GPRESSURE VOLUME PRESSAVG GPRESSAVG
ENERGY: 0 4.8802 9.6861 19.3344 0.0000 -10522.5088 1355.3064 0.0000 0.0000 1735.0086 -7398.2931 296.8705 -9133.3017 -7398.2931 296.8705 -397.9858 -301.7446 30129.6428 -397.9858 -301.7446
ENERGY: 300000 3.2221 15.3109 19.4189 0.0000 -10491.0212 1338.4938 0.0000 0.0000 1744.3682 -7370.2073 298.4719 -9114.5755 -7417.9916 298.9755 -299.1447 -221.3671 30061.0204 -48.7914 21.6364
ENERGY: 600000 3.8625 12.8464 17.5001 0.0000 -10499.2894 1371.2004 0.0000 0.0000 1749.6150 -7344.2650 299.3697 -9093.8800 -7410.9647 299.5069 -248.2257 -130.3294 30217.8739 -137.4014 -63.1763
ENERGY: 900000 5.3500 10.3467 16.5868 0.0000 -10596.8970 1404.5718 0.0000 0.0000 1798.0143 -7362.0274 307.6511 -9160.0417 -7402.2012 300.1368 -360.4938 -272.9314 30456.8144 -85.2745 -2.1838
ENERGY: 1200000 2.0072 12.6410 19.3161 0.0000 -10503.9283 1333.5236 0.0000 0.0000 1734.6244 -7401.8158 296.8047 -9136.4403 -7400.8106 299.8244 -710.1344 -574.2316 30523.8706 -119.6903 -37.4035
ENERGY: 1500000 2.4168 10.3578 14.5582 0.0000 -10516.5468 1373.1054 0.0000 0.0000 1725.7794 -7390.3292 295.2913 -9116.1087 -7404.6337 299.4782 -249.7391 -172.4784 30705.4597 -138.8856 -61.4596
TCL: Running FEP window   3: Lambda1 0.8999999999999999 Lambda2 0.8499999999999999 [dLambda -0.050000000000000044]
TCL: Setting parameter firsttimestep to 0
TCL: Setting parameter alchLambda to 0.8999999999999999
Info: NONBONDED TABLE R-SQUARED SPACING: 0.0625
Info: NONBONDED TABLE SIZE: 705 POINTS
TCL: Setting parameter alchLambda2 to 0.8499999999999999
Info: NONBONDED TABLE R-SQUARED SPACING: 0.0625
Info: NONBONDED TABLE SIZE: 705 POINTS
TCL: Running for 1500000 steps
ETITLE: TS BOND ANGLE DIHED IMPRP ELECT VDW BOUNDARY MISC KINETIC TOTAL TEMP POTENTIAL TOTALAVG TEMPAVG PRESSURE GPRESSURE VOLUME PRESSAVG GPRESSAVG
ENERGY: 0 2.4168 10.3578 14.5582 0.0000 -10514.7161 1372.8409 0.0000 0.0000 1724.9067 -7389.6357 295.1420 -9114.5425 -7389.6357 295.1420 -284.6188 -190.8071 30705.4597 -284.6188 -190.8071
ENERGY: 300000 8.3221 13.0327 15.4850 0.0000 -10470.0874 1318.6660 0.0000 0.0000 1751.7463 -7362.8353 299.7344 -9114.5816 -7374.3389 302.4389 -795.4186 -725.3187 30114.6459 -398.5951 -339.9276
ENERGY: 600000 4.1417 14.4745 13.0497 0.0000 -10588.9764 1402.1666 0.0000 0.0000 1765.5583 -7389.5857 302.0977 -9155.1440 -7387.2638 301.4514 98.1471 128.8241 29941.5189 -174.3944 -126.0286
ENERGY: 900000 3.8829 14.9748 13.9561 0.0000 -10826.5175 1524.2905 0.0000 0.0000 1797.8194 -7471.5939 307.6178 -9269.4133 -7392.1100 301.6417 710.4274 848.8619 29740.6687 -223.5074 -156.6576
ENERGY: 1200000 2.3530 13.9023 16.8109 0.0000 -10787.1256 1506.0054 0.0000 0.0000 1758.3450 -7489.7091 300.8635 -9248.0541 -7386.4891 301.1627 990.0728 972.4183 29557.2192 -179.6920 -123.6883
ENERGY: 1500000 3.5578 11.6956 16.7886 0.0000 -10520.2042 1322.3913 0.0000 0.0000 1737.2718 -7428.4990 297.2577 -9165.7708 -7387.6154 300.9565 -641.4276 -541.8903 30119.0751 -199.9894 -141.6047
TCL: Running FEP window   4: Lambda1 0.8499999999999999 Lambda2 0.7999999999999998 [dLambda -0.050000000000000044]
TCL: Setting parameter firsttimestep to 0
TCL: Setting parameter alchLambda to 0.8499999999999999
Info: NONBONDED TABLE R-SQUARED SPACING: 0.0625
Info: NONBONDED TABLE SIZE: 705 POINTS
TCL: Setting parameter alchLambda2 to 0.7999999999999998
Info: NONBONDED TABLE R-SQUARED SPACING: 0.0625
Info: NONBONDED TABLE SIZE: 705 POINTS
TCL: Running for 1500000 steps
ETITLE: TS BOND ANGLE DIHED IMPRP ELECT VDW BOUNDARY MISC KINETIC TOTAL TEMP POTENTIAL TOTALAVG TEMPAVG PRESSURE GPRESSURE VOLUME PRESSAVG GPRESSAVG
ENERGY: 0 3.5578 11.6956 16.7886 0.0000 -10518.7448 1322.4943 0.0000 0.0000 1736.3431 -7427.8654 297.0988 -9164.2085 -7427.8654 297.0988 -632.8819 -557.5139 30119.0751 -632.8819 -557.5139
ENERGY: 300000 6.9653 11.0307 15.8875 0.0000 -10566.1716 1358.4787 0.0000 0.0000 1720.8176 -7452.9918 294.4423 -9173.8094 -7399.6684 299.1345 -589.4635 -508.7993 30376.5528 -295.3360 -225.6067
ENERGY: 600000 5.3163 16.8003 14.3440 0.0000 -10634.7604 1547.8547 0.0000 0.0000 1757.6722 -7292.7731 300.7483 -9050.4452 -7375.5645 298.1479 1067.0487 1108.9681 30404.6394 -178.9070 -114.7120
ENERGY: 900000 3.7729 9.7088 16.2183 0.0000 -10658.9667 1370.2212 0.0000 0.0000 1766.4538 -7492.5917 302.2509 -9259.0455 -7394.0212 298.5700 -748.3624 -645.0552 30217.2436 -236.1805 -167.7758
ENERGY: 1200000 6.6601 13.2683 15.3497 0.0000 -10680.3817 1492.8311 0.0000 0.0000 1763.3905 -7388.8820 301.7268 -9152.2724 -7405.4043 298.3217 648.3304 655.4636 30195.4448 -45.0226 27.8278
ENERGY: 1500000 5.5710 15.2385 19.2637 0.0000 -10666.0333 1432.3325 0.0000 0.0000 1745.6207 -7448.0070 298.6863 -9193.6276 -7417.1561 297.5737 48.2460 27.8715 30017.2046 -34.7235 26.7464
TCL: Running FEP window   5: Lambda1 0.7999999999999998 Lambda2 0.7499999999999998 [dLambda -0.050000000000000044]
TCL: Setting parameter firsttimestep to 0
TCL: Setting parameter alchLambda to 0.7999999999999998
Info: NONBONDED TABLE R-SQUARED SPACING: 0.0625
Info: NONBONDED TABLE SIZE: 705 POINTS
TCL: Setting parameter alchLambda2 to 0.7499999999999998
Info: NONBONDED TABLE R-SQUARED SPACING: 0.0625
Info: NONBONDED TABLE SIZE: 705 POINTS
TCL: Running for 1500000 steps
ETITLE: TS BOND ANGLE DIHED IMPRP ELECT VDW BOUNDARY MISC KINETIC TOTAL TEMP POTENTIAL TOTALAVG TEMPAVG PRESSURE GPRESSURE VOLUME PRESSAVG GPRESSAVG
ENERGY: 0 5.5710 15.2385 19.2637 0.0000 -10664.7789 1432.6038 0.0000 0.0000 1744.7300 -7447.3719 298.5338 -9192.1018 -7447.3719 298.5338 -68.2911 15.0216 30017.2046 -68.2911 15.0216
ENERGY: 300000 3.3356 16.2321 12.9897 0.0000 -10748.5015 1460.0518 0.0000 0.0000 1727.7554 -7528.1369 295.6294 -9255.8923 -7444.6206 298.1706 -307.1003 -199.5931 30331.4688 -216.7464 -152.5774
ENERGY: 600000 3.2083 10.9642 19.2933 0.0000 -10618.4502 1408.2201 0.0000 0.0000 1762.0323 -7414.7320 301.4944 -9176.7643 -7413.9848 299.9236 257.1977 329.2009 29693.6691 57.1873 114.7251
ENERGY: 900000 2.4898 8.8168 20.7879 0.0000 -10676.3017 1450.0254 0.0000 0.0000 1679.0756 -7515.1062 287.3000 -9194.1818 -7408.1029 299.1351 88.9149 175.2740 30272.0113 126.0881 193.2807
ENERGY: 1200000 3.5368 13.4605 16.1952 0.0000 -10596.8896 1467.4576 0.0000 0.0000 1718.9996 -7377.2398 294.1312 -9096.2395 -7403.2697 299.1484 742.0541 762.5394 29799.1584 110.2042 170.4903
ENERGY: 1500000 6.2464 13.7746 14.5406 0.0000 -10770.5926 1516.6476 0.0000 0.0000 1743.2299 -7476.1534 298.2772 -9219.3833 -7402.0479 299.2066 873.7010 953.6488 29613.7297 154.4793 211.8936
TCL: Running FEP window   6: Lambda1 0.7499999999999998 Lambda2 0.6999999999999997 [dLambda -0.050000000000000044]
TCL: Setting parameter firsttimestep to 0
TCL: Setting parameter alchLambda to 0.7499999999999998
Info: NONBONDED TABLE R-SQUARED SPACING: 0.0625
Info: NONBONDED TABLE SIZE: 705 POINTS
TCL: Setting parameter alchLambda2 to 0.6999999999999997
Info: NONBONDED TABLE R-SQUARED SPACING: 0.0625
Info: NONBONDED TABLE SIZE: 705 POINTS
TCL: Running for 1500000 steps
ETITLE: TS BOND ANGLE DIHED IMPRP ELECT VDW BOUNDARY MISC KINETIC TOTAL TEMP POTENTIAL TOTALAVG TEMPAVG PRESSURE GPRESSURE VOLUME PRESSAVG GPRESSAVG
ENERGY: 0 6.2464 13.7746 14.5406 0.0000 -10768.5763 1516.1323 0.0000 0.0000 1742.3789 -7475.5035 298.1316 -9217.8823 -7475.5035 298.1316 859.9684 934.0124 29613.7297 859.9684 934.0124
ENERGY: 300000 3.9974 21.1866 12.7858 0.0000 -10502.9283 1348.7290 0.0000 0.0000 1734.3868 -7381.8426 296.7641 -9116.2295 -7419.8707 298.4268 -499.6331 -430.9681 30302.8300 386.7288 447.1451
ENERGY: 600000 4.1545 12.5428 14.5130 0.0000 -10753.3835 1471.8905 0.0000 0.0000 1687.3433 -7562.9394 288.7146 -9250.2826 -7447.6019 295.1684 -55.3828 55.6035 29995.4519 63.6505 132.7042
ENERGY: 900000 3.0523 10.8473 21.4470 0.0000 -10507.5370 1359.3425 0.0000 0.0000 1782.4086 -7330.4392 304.9809 -9112.8478 -7431.9376 296.7122 -263.9802 -209.0636 30163.2055 -44.7198 19.3683
ENERGY: 1200000 5.6243 20.1427 15.8382 0.0000 -10503.6467 1326.9232 0.0000 0.0000 1812.6078 -7322.5104 310.1482 -9135.1182 -7426.0146 297.7845 -912.6326 -851.4210 30655.8918 -136.6098 -74.7612
ENERGY: 1500000 4.4487 11.2265 13.1462 0.0000 -10585.2325 1363.8268 0.0000 0.0000 1682.9351 -7509.6492 287.9604 -9192.5843 -7428.1881 297.1205 -732.7602 -669.5624 30350.5649 -156.1721 -94.0689
TCL: Running FEP window   7: Lambda1 0.6999999999999997 Lambda2 0.6499999999999997 [dLambda -0.050000000000000044]
TCL: Setting parameter firsttimestep to 0
TCL: Setting parameter alchLambda to 0.6999999999999997
Info: NONBONDED TABLE R-SQUARED SPACING: 0.0625
Info: NONBONDED TABLE SIZE: 705 POINTS
TCL: Setting parameter alchLambda2 to 0.6499999999999997
Info: NONBONDED TABLE R-SQUARED SPACING: 0.0625
Info: NONBONDED TABLE SIZE: 705 POINTS
TCL: Running for 1500000 steps
ETITLE: TS BOND ANGLE DIHED IMPRP ELECT VDW BOUNDARY MISC KINETIC TOTAL TEMP POTENTIAL TOTALAVG TEMPAVG PRESSURE GPRESSURE VOLUME PRESSAVG GPRESSAVG
ENERGY: 0 4.4487 11.2265 13.1462 0.0000 -10583.2752 1363.4897 0.0000 0.0000 1682.1024 -7508.8615 287.8179 -9190.9640 -7508.8615 287.8179 -766.9251 -684.0628 30350.5649 -766.9251 -684.0628
ENERGY: 300000 6.1872 10.8183 17.9915 0.0000 -10615.0742 1390.8833 0.0000 0.0000 1772.8365 -7416.3574 303.3430 -9189.1938 -7424.1871 295.9015 -109.3225 -42.0188 30011.6259 -408.7662 -325.5390
ENERGY: 600000 3.9001 10.4582 17.5716 0.0000 -10645.0396 1440.1489 0.0000 0.0000 1732.6811 -7440.2797 296.4722 -9172.9609 -7412.6208 297.0382 -79.6848 -7.7979 30216.8923 -97.3084 -37.3101
ENERGY: 900000 4.8164 13.8699 14.3991 0.0000 -10627.5550 1459.0177 0.0000 0.0000 1806.5882 -7328.8637 309.1182 -9135.4520 -7395.8067 298.1076 429.4488 501.3658 30239.1778 87.6436 154.4498
ENERGY: 1200000 6.8653 12.1495 18.6079 0.0000 -10499.0210 1336.3182 0.0000 0.0000 1757.0814 -7367.9987 300.6473 -9125.0801 -7388.4401 298.1238 -791.5792 -632.1316 30623.8239 7.5721 77.1742
ENERGY: 1500000 3.3842 11.4789 19.7588 0.0000 -10541.0137 1419.6143 0.0000 0.0000 1707.5145 -7379.2631 292.1661 -9086.7776 -7394.4262 297.9664 250.5126 319.3832 30087.5903 51.9298 120.5464
TCL: Running FEP window   8: Lambda1 0.6499999999999997 Lambda2 0.5999999999999996 [dLambda -0.050000000000000044]
TCL: Setting parameter firsttimestep to 0
TCL: Setting parameter alchLambda to 0.6499999999999997
Info: NONBONDED TABLE R-SQUARED SPACING: 0.0625
Info: NONBONDED TABLE SIZE: 705 POINTS
TCL: Setting parameter alchLambda2 to 0.5999999999999996
Info: NONBONDED TABLE R-SQUARED SPACING: 0.0625
Info: NONBONDED TABLE SIZE: 705 POINTS
TCL: Running for 1500000 steps
ETITLE: TS BOND ANGLE DIHED IMPRP ELECT VDW BOUNDARY MISC KINETIC TOTAL TEMP POTENTIAL TOTALAVG TEMPAVG PRESSURE GPRESSURE VOLUME PRESSAVG GPRESSAVG
ENERGY: 0 3.3842 11.4789 19.7588 0.0000 -10539.4681 1420.1789 0.0000 0.0000 1706.6813 -7377.9860 292.0235 -9084.6673 -7377.9860 292.0235 224.2419 313.2663 30087.5903 224.2419 313.2663
ENERGY: 300000 1.8384 12.1700 19.0341 0.0000 -10547.9671 1346.2394 0.0000 0.0000 1708.8196 -7459.8656 292.3894 -9168.6852 -7396.6108 296.1939 -562.9229 -545.9762 30144.6774 -400.9205 -334.0307
ENERGY: 600000 2.1959 9.0217 20.7364 0.0000 -10691.1863 1464.1252 0.0000 0.0000 1715.4607 -7479.6464 293.5257 -9195.1071 -7404.1857 295.8659 229.2706 254.8786 29951.3344 -163.4129 -100.6163
ENERGY: 900000 8.1796 14.2935 14.1474 0.0000 -10555.3414 1401.5851 0.0000 0.0000 1801.7477 -7315.3880 308.2899 -9117.1357 -7404.2668 297.7708 -310.4586 -266.9776 30263.7668 -233.5571 -180.2884
ENERGY: 1200000 3.0478 13.4674 14.8924 0.0000 -10667.2310 1442.4878 0.0000 0.0000 1735.8507 -7457.4849 297.0146 -9193.3356 -7412.2825 297.8732 -93.1080 -80.9265 30231.7495 -258.2486 -210.2587
ENERGY: 1500000 4.1200 16.6183 14.7488 0.0000 -10556.8107 1384.2872 0.0000 0.0000 1728.5087 -7408.5278 295.7583 -9137.0365 -7403.5149 299.0224 -194.0059 -141.0499 30149.2420 -238.3971 -183.8055
TCL: Running FEP window   9: Lambda1 0.5999999999999996 Lambda2 0.5499999999999996 [dLambda -0.050000000000000044]
TCL: Setting parameter firsttimestep to 0
TCL: Setting parameter alchLambda to 0.5999999999999996
Info: NONBONDED TABLE R-SQUARED SPACING: 0.0625
Info: NONBONDED TABLE SIZE: 705 POINTS
TCL: Setting parameter alchLambda2 to 0.5499999999999996
Info: NONBONDED TABLE R-SQUARED SPACING: 0.0625
Info: NONBONDED TABLE SIZE: 705 POINTS
TCL: Running for 1500000 steps
ETITLE: TS BOND ANGLE DIHED IMPRP ELECT VDW BOUNDARY MISC KINETIC TOTAL TEMP POTENTIAL TOTALAVG TEMPAVG PRESSURE GPRESSURE VOLUME PRESSAVG GPRESSAVG
ENERGY: 0 4.1200 16.6183 14.7488 0.0000 -10556.2500 1384.6930 0.0000 0.0000 1727.6563 -7408.4136 295.6124 -9136.0699 -7408.4136 295.6124 -230.4248 -154.4691 30149.2420 -230.4248 -154.4691
ENERGY: 300000 1.9528 16.5850 13.0248 0.0000 -10744.8097 1499.8542 0.0000 0.0000 1759.2191 -7454.1738 301.0130 -9213.3929 -7425.7865 301.0442 547.3886 659.0336 29850.6069 117.3828 179.3615
ENERGY: 600000 3.1777 17.6598 15.0559 0.0000 -10689.9560 1485.9281 0.0000 0.0000 1749.8043 -7418.3303 299.4021 -9168.1345 -7426.2595 300.7993 506.4307 628.6481 29981.1828 306.3636 369.3444
ENERGY: 900000 4.3174 9.9859 16.7885 0.0000 -10707.1637 1527.8817 0.0000 0.0000 1728.7167 -7419.4734 295.7939 -9148.1901 -7410.0286 300.2244 1063.0549 1117.3248 29713.6387 161.7520 224.5579
ENERGY: 1200000 4.0590 14.2643 15.2583 0.0000 -10732.0868 1507.4973 0.0000 0.0000 1749.4039 -7441.6040 299.3336 -9191.0079 -7405.2567 301.0238 403.9202 453.0303 30360.5776 134.6122 198.4769
ENERGY: 1500000 2.5055 14.6838 13.6770 0.0000 -10631.4221 1410.9860 0.0000 0.0000 1740.8154 -7448.7543 297.8640 -9189.5698 -7411.2521 301.3170 -287.0780 -176.6019 30084.9850 119.4373 189.6328
TCL: Running FEP window  10: Lambda1 0.5499999999999996 Lambda2 0.4999999999999996 [dLambda -0.04999999999999999]
TCL: Setting parameter firsttimestep to 0
TCL: Setting parameter alchLambda to 0.5499999999999996
Info: NONBONDED TABLE R-SQUARED SPACING: 0.0625
Info: NONBONDED TABLE SIZE: 705 POINTS
TCL: Setting parameter alchLambda2 to 0.4999999999999996
Info: NONBONDED TABLE R-SQUARED SPACING: 0.0625
Info: NONBONDED TABLE SIZE: 705 POINTS
TCL: Running for 1500000 steps
ETITLE: TS BOND ANGLE DIHED IMPRP ELECT VDW BOUNDARY MISC KINETIC TOTAL TEMP POTENTIAL TOTALAVG TEMPAVG PRESSURE GPRESSURE VOLUME PRESSAVG GPRESSAVG
ENERGY: 0 2.5055 14.6838 13.6770 0.0000 -10630.6797 1411.5839 0.0000 0.0000 1739.9533 -7448.2761 297.7165 -9188.2294 -7448.2761 297.7165 -280.7434 -180.6085 30084.9850 -280.7434 -180.6085
ENERGY: 300000 3.8677 14.3051 12.6755 0.0000 -10443.4423 1346.1963 0.0000 0.0000 1749.5248 -7316.8730 299.3543 -9066.3978 -7369.4860 300.7825 -468.1918 -333.3792 30436.5030 -136.6889 -65.3078
ENERGY: 600000 8.6795 12.2771 15.7158 0.0000 -10632.3095 1478.6568 0.0000 0.0000 1754.6011 -7362.3790 300.2229 -9116.9802 -7369.7436 301.2213 415.9352 474.1119 29950.2333 19.9369 72.4677
ENERGY: 900000 4.5825 14.8469 16.3523 0.0000 -10618.9289 1459.2785 0.0000 0.0000 1789.8133 -7334.0553 306.2479 -9123.8686 -7375.4925 300.8810 468.3994 546.9294 30259.0914 -35.8022 12.3729
ENERGY: 1200000 3.4980 17.2357 14.0920 0.0000 -10498.0556 1345.8395 0.0000 0.0000 1754.6934 -7362.6970 300.2387 -9117.3904 -7384.6443 299.8601 -499.7959 -424.7947 30274.1046 -5.4096 43.0302
ENERGY: 1500000 4.4455 13.4709 13.0422 0.0000 -10649.7897 1434.0776 0.0000 0.0000 1766.0439 -7418.7097 302.1808 -9184.7536 -7389.9288 300.2051 23.6700 71.5230 30100.8962 -7.5559 43.3521
TCL: Running FEP window  11: Lambda1 0.4999999999999996 Lambda2 0.4499999999999996 [dLambda -0.04999999999999999]
TCL: Setting parameter firsttimestep to 0
TCL: Setting parameter alchLambda to 0.4999999999999996
Info: NONBONDED TABLE R-SQUARED SPACING: 0.0625
Info: NONBONDED TABLE SIZE: 705 POINTS
TCL: Setting parameter alchLambda2 to 0.4499999999999996
Info: NONBONDED TABLE R-SQUARED SPACING: 0.0625
Info: NONBONDED TABLE SIZE: 705 POINTS
TCL: Running for 1500000 steps
ETITLE: TS BOND ANGLE DIHED IMPRP ELECT VDW BOUNDARY MISC KINETIC TOTAL TEMP POTENTIAL TOTALAVG TEMPAVG PRESSURE GPRESSURE VOLUME PRESSAVG GPRESSAVG
ENERGY: 0 4.4455 13.4709 13.0422 0.0000 -10649.3010 1434.1701 0.0000 0.0000 1765.1892 -7418.9832 302.0346 -9184.1724 -7418.9832 302.0346 -37.8767 61.3597 30100.8962 -37.8767 61.3597
ENERGY: 300000 5.0813 13.0343 13.4508 0.0000 -10503.5191 1375.5110 0.0000 0.0000 1745.0321 -7351.4096 298.5856 -9096.4417 -7378.5569 298.5986 -425.7092 -453.9652 30432.2806 -352.4166 -310.6070
ENERGY: 600000 6.0613 18.5574 13.2227 0.0000 -10531.5604 1414.8355 0.0000 0.0000 1823.2655 -7255.6178 311.9718 -9078.8834 -7352.1524 302.5207 23.4327 28.6243 30481.6180 -18.9017 29.2881
ENERGY: 900000 9.0577 15.0046 19.9828 0.0000 -10502.9466 1395.8536 0.0000 0.0000 1768.2216 -7294.8262 302.5534 -9063.0478 -7364.1383 301.7968 -232.6819 -155.7873 30500.2183 -0.3482 55.8951
ENERGY: 1200000 4.4801 13.5767 14.8017 0.0000 -10597.9823 1395.8243 0.0000 0.0000 1697.4768 -7471.8227 290.4486 -9169.2995 -7358.1237 301.6017 -742.9297 -627.2683 30484.9115 -60.2409 1.0072
ENERGY: 1500000 3.8014 10.1404 16.9149 0.0000 -10476.9839 1363.9974 0.0000 0.0000 1803.8936 -7278.2362 308.6571 -9082.1298 -7357.4680 301.3521 -396.2090 -286.8898 30456.5439 -139.7897 -71.1973
TCL: Running FEP window  12: Lambda1 0.4499999999999996 Lambda2 0.39999999999999963 [dLambda -0.04999999999999999]
TCL: Setting parameter firsttimestep to 0
TCL: Setting parameter alchLambda to 0.4499999999999996
Info: NONBONDED TABLE R-SQUARED SPACING: 0.0625
Info: NONBONDED TABLE SIZE: 705 POINTS
TCL: Setting parameter alchLambda2 to 0.39999999999999963
Info: NONBONDED TABLE R-SQUARED SPACING: 0.0625
Info: NONBONDED TABLE SIZE: 705 POINTS
TCL: Running for 1500000 steps
ETITLE: TS BOND ANGLE DIHED IMPRP ELECT VDW BOUNDARY MISC KINETIC TOTAL TEMP POTENTIAL TOTALAVG TEMPAVG PRESSURE GPRESSURE VOLUME PRESSAVG GPRESSAVG
ENERGY: 0 3.8014 10.1404 16.9149 0.0000 -10476.9834 1364.9618 0.0000 0.0000 1803.0089 -7278.1559 308.5057 -9081.1649 -7278.1559 308.5057 -381.4351 -286.1280 30456.5439 -381.4351 -286.1280
ENERGY: 300000 4.1926 8.4443 14.4832 0.0000 -10593.7849 1350.6537 0.0000 0.0000 1757.3533 -7458.6578 300.6938 -9216.0111 -7416.3413 299.1773 -915.1053 -846.8955 30128.8864 -154.8094 -89.0496
ENERGY: 600000 8.4992 10.1964 16.2233 0.0000 -10492.9399 1381.9568 0.0000 0.0000 1766.7233 -7309.3410 302.2971 -9076.0643 -7398.6735 299.6782 -102.2063 -70.1025 30403.6084 -262.9805 -196.2648
ENERGY: 900000 4.4819 13.2396 15.4195 0.0000 -10638.8530 1407.1483 0.0000 0.0000 1792.6501 -7405.9135 306.7333 -9198.5636 -7397.8238 300.2590 -344.4012 -271.4484 30023.6140 -280.5098 -218.7100
ENERGY: 1200000 3.6881 11.5283 14.1087 0.0000 -10596.5631 1407.5625 0.0000 0.0000 1792.4833 -7367.1922 306.7047 -9159.6756 -7383.5332 300.9614 -2.3470 19.6960 29996.4601 -204.3766 -148.5813
ENERGY: 1500000 7.3770 10.7486 13.2107 0.0000 -10606.4398 1432.1127 0.0000 0.0000 1770.6831 -7372.3079 302.9746 -9142.9910 -7383.5194 300.6305 671.8401 713.4985 29450.1639 -151.4516 -96.4442
TCL: Running FEP window  13: Lambda1 0.39999999999999963 Lambda2 0.34999999999999964 [dLambda -0.04999999999999999]
TCL: Setting parameter firsttimestep to 0
TCL: Setting parameter alchLambda to 0.39999999999999963
Info: NONBONDED TABLE R-SQUARED SPACING: 0.0625
Info: NONBONDED TABLE SIZE: 705 POINTS
TCL: Setting parameter alchLambda2 to 0.34999999999999964
Info: NONBONDED TABLE R-SQUARED SPACING: 0.0625
Info: NONBONDED TABLE SIZE: 705 POINTS
TCL: Running for 1500000 steps
ETITLE: TS BOND ANGLE DIHED IMPRP ELECT VDW BOUNDARY MISC KINETIC TOTAL TEMP POTENTIAL TOTALAVG TEMPAVG PRESSURE GPRESSURE VOLUME PRESSAVG GPRESSAVG
ENERGY: 0 7.3770 10.7486 13.2107 0.0000 -10606.4381 1432.8379 0.0000 0.0000 1769.8298 -7372.4342 302.8286 -9142.2640 -7372.4342 302.8286 626.8237 707.6246 29450.1639 626.8237 707.6246
ENERGY: 300000 5.0688 18.4582 12.1829 0.0000 -10616.3622 1447.2983 0.0000 0.0000 1771.6762 -7361.6778 303.1445 -9133.3540 -7387.1413 301.2810 356.8253 395.7082 29562.1939 44.7955 100.3680
ENERGY: 600000 5.2524 15.0350 12.0069 0.0000 -10605.9023 1419.3664 0.0000 0.0000 1759.1021 -7395.1394 300.9930 -9154.2415 -7396.5076 301.7907 -351.7732 -308.0475 30347.7356 119.3033 163.4841
ENERGY: 900000 1.9953 11.2073 18.1965 0.0000 -10519.2279 1379.1127 0.0000 0.0000 1751.7993 -7356.9168 299.7435 -9108.7162 -7400.4891 300.2915 -304.3501 -199.6258 30021.6421 19.2040 74.1423
ENERGY: 1200000 2.7977 8.6345 14.9182 0.0000 -10652.2607 1450.7322 0.0000 0.0000 1755.1215 -7420.0566 300.3119 -9175.1782 -7403.2330 299.2791 266.4882 321.7852 29999.6971 4.7751 64.6159
ENERGY: 1500000 4.9114 15.5639 16.2645 0.0000 -10452.3785 1367.1178 0.0000 0.0000 1771.0234 -7277.4975 303.0328 -9048.5209 -7389.5656 300.3816 -315.2934 -227.1010 30463.4351 6.1671 58.8472
TCL: Running FEP window  14: Lambda1 0.34999999999999964 Lambda2 0.29999999999999966 [dLambda -0.04999999999999999]
TCL: Setting parameter firsttimestep to 0
TCL: Setting parameter alchLambda to 0.34999999999999964
Info: NONBONDED TABLE R-SQUARED SPACING: 0.0625
Info: NONBONDED TABLE SIZE: 705 POINTS
TCL: Setting parameter alchLambda2 to 0.29999999999999966
Info: NONBONDED TABLE R-SQUARED SPACING: 0.0625
Info: NONBONDED TABLE SIZE: 705 POINTS
TCL: Running for 1500000 steps
ETITLE: TS BOND ANGLE DIHED IMPRP ELECT VDW BOUNDARY MISC KINETIC TOTAL TEMP POTENTIAL TOTALAVG TEMPAVG PRESSURE GPRESSURE VOLUME PRESSAVG GPRESSAVG
ENERGY: 0 4.9114 15.5640 16.2645 0.0000 -10452.3784 1367.7645 0.0000 0.0000 1770.1871 -7277.6870 302.8897 -9047.8740 -7277.6870 302.8897 -304.4555 -232.3571 30463.4351 -304.4555 -232.3571
ENERGY: 300000 6.6938 13.3491 13.0396 0.0000 -10526.0613 1344.3151 0.0000 0.0000 1709.5354 -7439.1282 292.5119 -9148.6637 -7339.3246 299.8452 -408.2365 -373.5030 29656.4173 -188.5900 -122.1013
ENERGY: 600000 5.3413 15.7444 13.9108 0.0000 -10705.7627 1518.4503 0.0000 0.0000 1695.2658 -7457.0502 290.0702 -9152.3159 -7366.4945 298.9962 879.9016 979.7441 29535.3965 8.3513 97.1657
ENERGY: 900000 4.4116 9.2577 16.0673 0.0000 -10554.1608 1378.1258 0.0000 0.0000 1756.4900 -7389.8083 300.5461 -9146.2984 -7384.4368 298.2144 -448.2626 -435.4288 30353.4946 -47.7864 38.8956
ENERGY: 1200000 2.8535 17.1197 13.3289 0.0000 -10569.4060 1405.4199 0.0000 0.0000 1731.2264 -7399.4577 296.2233 -9130.6841 -7388.8209 298.4101 59.0436 72.5698 30101.1875 -100.2708 -8.2851
ENERGY: 1500000 4.5341 11.8852 15.4814 0.0000 -10586.5036 1434.3031 0.0000 0.0000 1792.4694 -7327.8304 306.7024 -9120.2998 -7391.0235 298.4138 246.6713 296.6951 30283.4358 -67.5194 18.3935
TCL: Running FEP window  15: Lambda1 0.29999999999999966 Lambda2 0.24999999999999967 [dLambda -0.04999999999999999]
TCL: Setting parameter firsttimestep to 0
TCL: Setting parameter alchLambda to 0.29999999999999966
Info: NONBONDED TABLE R-SQUARED SPACING: 0.0625
Info: NONBONDED TABLE SIZE: 705 POINTS
TCL: Setting parameter alchLambda2 to 0.24999999999999967
Info: NONBONDED TABLE R-SQUARED SPACING: 0.0625
Info: NONBONDED TABLE SIZE: 705 POINTS
TCL: Running for 1500000 steps
ETITLE: TS BOND ANGLE DIHED IMPRP ELECT VDW BOUNDARY MISC KINETIC TOTAL TEMP POTENTIAL TOTALAVG TEMPAVG PRESSURE GPRESSURE VOLUME PRESSAVG GPRESSAVG
ENERGY: 0 4.5341 11.8852 15.4814 0.0000 -10586.5041 1434.4678 0.0000 0.0000 1791.5856 -7328.5500 306.5511 -9120.1356 -7328.5500 306.5511 206.0984 287.5719 30283.4358 206.0984 287.5719
ENERGY: 300000 3.5246 10.6073 17.9450 0.0000 -10606.3943 1441.3999 0.0000 0.0000 1729.7308 -7403.1866 295.9674 -9132.9174 -7395.7174 301.6693 309.5755 337.7156 29962.8064 296.7339 346.1764
ENERGY: 600000 5.2165 20.5362 12.7114 0.0000 -10632.0785 1466.6806 0.0000 0.0000 1734.1591 -7392.7747 296.7251 -9126.9338 -7389.6961 300.7869 531.1394 629.9091 29725.0765 241.9705 314.6670
ENERGY: 900000 2.5412 16.1485 14.2637 0.0000 -10447.9966 1321.9925 0.0000 0.0000 1779.2215 -7313.8292 304.4356 -9093.0507 -7374.6410 301.4547 -727.4707 -689.6339 29923.5336 140.8940 213.2569
ENERGY: 1200000 3.2982 13.9168 16.8891 0.0000 -10486.7404 1302.6745 0.0000 0.0000 1764.7492 -7385.2125 301.9593 -9149.9617 -7368.9503 301.5855 -1141.0676 -1085.9830 30095.1374 -15.3349 61.4287
ENERGY: 1500000 2.3817 11.7923 23.1964 0.0000 -10684.4588 1443.6956 0.0000 0.0000 1691.2232 -7512.1695 289.3785 -9203.3927 -7380.4241 300.6512 -232.6705 -219.2854 30107.6035 -31.1319 42.5656
TCL: Running FEP window  16: Lambda1 0.24999999999999967 Lambda2 0.19999999999999968 [dLambda -0.04999999999999999]
TCL: Setting parameter firsttimestep to 0
TCL: Setting parameter alchLambda to 0.24999999999999967
Info: NONBONDED TABLE R-SQUARED SPACING: 0.0625
Info: NONBONDED TABLE SIZE: 705 POINTS
TCL: Setting parameter alchLambda2 to 0.19999999999999968
Info: NONBONDED TABLE R-SQUARED SPACING: 0.0625
Info: NONBONDED TABLE SIZE: 705 POINTS
TCL: Running for 1500000 steps
ETITLE: TS BOND ANGLE DIHED IMPRP ELECT VDW BOUNDARY MISC KINETIC TOTAL TEMP POTENTIAL TOTALAVG TEMPAVG PRESSURE GPRESSURE VOLUME PRESSAVG GPRESSAVG
ENERGY: 0 2.3817 11.7923 23.1964 0.0000 -10684.4585 1443.0690 0.0000 0.0000 1690.3669 -7513.6521 289.2320 -9204.0190 -7513.6521 289.2320 -312.3183 -229.4948 30107.6035 -312.3183 -229.4948
ENERGY: 300000 3.7726 13.1837 13.7879 0.0000 -10475.2319 1352.5719 0.0000 0.0000 1699.3870 -7392.5289 290.7754 -9091.9159 -7401.2144 296.9695 -904.0319 -865.8328 30767.4265 -357.2621 -280.3392
ENERGY: 600000 4.0286 18.3554 18.6240 0.0000 -10735.2732 1448.2136 0.0000 0.0000 1676.9852 -7569.0664 286.9423 -9246.0516 -7424.4248 296.2135 -127.6218 -46.4530 29871.7096 -258.2645 -187.4247
ENERGY: 900000 4.3633 14.3193 20.6882 0.0000 -10518.4430 1389.2051 0.0000 0.0000 1733.9896 -7355.8775 296.6961 -9089.8671 -7397.8651 297.1401 -286.5994 -227.0076 30361.0049 -219.3360 -147.7319
ENERGY: 1200000 4.6384 13.0953 12.9441 0.0000 -10706.5612 1482.0378 0.0000 0.0000 1771.0817 -7422.7638 303.0428 -9193.8455 -7395.4214 298.0947 303.0766 364.1872 29931.0308 -135.2856 -71.4994
ENERGY: 1500000 6.7457 18.6127 13.4408 0.0000 -10529.7912 1410.4717 0.0000 0.0000 1782.8314 -7297.6889 305.0532 -9080.5203 -7391.1382 298.6490 137.3429 273.0569 30013.4305 -106.7585 -39.2125
TCL: Running FEP window  17: Lambda1 0.19999999999999968 Lambda2 0.1499999999999997 [dLambda -0.04999999999999999]
TCL: Setting parameter firsttimestep to 0
TCL: Setting parameter alchLambda to 0.19999999999999968
Info: NONBONDED TABLE R-SQUARED SPACING: 0.0625
Info: NONBONDED TABLE SIZE: 705 POINTS
TCL: Setting parameter alchLambda2 to 0.1499999999999997
Info: NONBONDED TABLE R-SQUARED SPACING: 0.0625
Info: NONBONDED TABLE SIZE: 705 POINTS
TCL: Running for 1500000 steps
ETITLE: TS BOND ANGLE DIHED IMPRP ELECT VDW BOUNDARY MISC KINETIC TOTAL TEMP POTENTIAL TOTALAVG TEMPAVG PRESSURE GPRESSURE VOLUME PRESSAVG GPRESSAVG
ENERGY: 0 6.7457 18.6127 13.4408 0.0000 -10529.7888 1410.8751 0.0000 0.0000 1781.9861 -7298.1285 304.9086 -9080.1146 -7298.1285 304.9086 189.4762 268.1639 30013.4305 189.4762 268.1639
ENERGY: 300000 2.9860 11.3901 12.0250 0.0000 -10535.3213 1399.7410 0.0000 0.0000 1782.7823 -7326.3969 305.0448 -9109.1792 -7358.1950 304.3416 -273.2358 -189.4502 30121.9243 -44.8014 31.7789
ENERGY: 600000 4.5128 13.4709 16.7230 0.0000 -10661.9696 1418.8416 0.0000 0.0000 1734.4180 -7474.0032 296.7694 -9208.4212 -7407.1465 302.5503 -278.7736 -186.3009 29893.1983 -149.9066 -73.9688
ENERGY: 900000 5.7603 10.6680 16.2127 0.0000 -10510.3654 1343.0574 0.0000 0.0000 1707.4995 -7427.1675 292.1635 -9134.6670 -7400.9233 300.3802 -733.5333 -633.0214 30095.7728 -142.5248 -64.7146
ENERGY: 1200000 3.6987 13.6810 19.3394 0.0000 -10726.2234 1523.8302 0.0000 0.0000 1786.2910 -7379.3831 305.6452 -9165.6742 -7383.5475 302.0626 548.5160 603.6784 30138.3788 -93.4800 -23.2810
ENERGY: 1500000 8.9700 11.4069 18.7009 0.0000 -10693.8925 1480.2984 0.0000 0.0000 1786.4095 -7388.1068 305.6655 -9174.5163 -7377.5217 303.0497 71.5264 106.7375 29748.3356 -62.5928 4.5664
TCL: Running FEP window  18: Lambda1 0.1499999999999997 Lambda2 0.09999999999999969 [dLambda -0.05 ]
TCL: Setting parameter firsttimestep to 0
TCL: Setting parameter alchLambda to 0.1499999999999997
Info: NONBONDED TABLE R-SQUARED SPACING: 0.0625
Info: NONBONDED TABLE SIZE: 705 POINTS
TCL: Setting parameter alchLambda2 to 0.09999999999999969
Info: NONBONDED TABLE R-SQUARED SPACING: 0.0625
Info: NONBONDED TABLE SIZE: 705 POINTS
TCL: Running for 1500000 steps
ETITLE: TS BOND ANGLE DIHED IMPRP ELECT VDW BOUNDARY MISC KINETIC TOTAL TEMP POTENTIAL TOTALAVG TEMPAVG PRESSURE GPRESSURE VOLUME PRESSAVG GPRESSAVG
ENERGY: 0 8.9700 11.4069 18.7009 0.0000 -10693.8928 1479.3026 0.0000 0.0000 1785.5316 -7389.9807 305.5153 -9175.5124 -7389.9807 305.5153 -1.2731 95.5645 29748.3356 -1.2731 95.5645
ENERGY: 300000 3.3802 14.8999 14.0307 0.0000 -10591.0849 1446.7611 0.0000 0.0000 1764.0639 -7347.9490 301.8420 -9112.0130 -7391.5615 305.5780 296.3622 380.1474 29884.1564 143.5201 222.8957
ENERGY: 600000 5.2795 15.3850 16.7210 0.0000 -10662.4843 1444.2321 0.0000 0.0000 1742.4163 -7438.4503 298.1380 -9180.8666 -7372.4906 304.0896 -26.0845 49.2334 29699.7520 193.9613 269.2954
ENERGY: 900000 3.0917 10.5872 15.3414 0.0000 -10592.9528 1422.4870 0.0000 0.0000 1695.6940 -7445.7515 290.1435 -9141.4456 -7390.2478 301.6090 190.0578 275.9650 29846.9086 224.9655 303.4574
ENERGY: 1200000 4.0693 9.1229 20.4346 0.0000 -10719.4234 1444.5369 0.0000 0.0000 1702.0930 -7539.1668 291.2384 -9241.2598 -7391.0723 302.1909 51.4328 104.0563 29540.3132 136.3971 206.8541
ENERGY: 1500000 5.1430 11.7343 15.9063 0.0000 -10606.2931 1421.6952 0.0000 0.0000 1763.9100 -7387.9042 301.8157 -9151.8143 -7391.9347 302.0808 -203.9043 -219.7847 30238.1558 105.8125 166.0140
TCL: Running FEP window  19: Lambda1 0.09999999999999969 Lambda2 0.049999999999999684 [dLambda -0.05 ]
TCL: Setting parameter firsttimestep to 0
TCL: Setting parameter alchLambda to 0.09999999999999969
Info: NONBONDED TABLE R-SQUARED SPACING: 0.0625
Info: NONBONDED TABLE SIZE: 705 POINTS
TCL: Setting parameter alchLambda2 to 0.049999999999999684
Info: NONBONDED TABLE R-SQUARED SPACING: 0.0625
Info: NONBONDED TABLE SIZE: 705 POINTS
TCL: Running for 1500000 steps
ETITLE: TS BOND ANGLE DIHED IMPRP ELECT VDW BOUNDARY MISC KINETIC TOTAL TEMP POTENTIAL TOTALAVG TEMPAVG PRESSURE GPRESSURE VOLUME PRESSAVG GPRESSAVG
ENERGY: 0 5.1430 11.7343 15.9063 0.0000 -10606.2940 1420.8392 0.0000 0.0000 1763.0488 -7389.6224 301.6683 -9152.6712 -7389.6224 301.6683 -316.4056 -229.6765 30238.1558 -316.4056 -229.6765
ENERGY: 300000 6.0784 11.1134 17.4919 0.0000 -10623.2977 1457.7548 0.0000 0.0000 1771.4220 -7359.4373 303.1010 -9130.8592 -7411.5812 301.6643 450.9358 452.5917 29627.3633 41.3080 105.9961
ENERGY: 600000 6.3724 9.4009 14.1616 0.0000 -10389.6316 1319.1249 0.0000 0.0000 1755.9716 -7284.6003 300.4574 -9040.5719 -7406.6131 299.3125 -713.7085 -633.9339 30254.2071 -104.5800 -51.3418
ENERGY: 900000 3.3753 16.4095 17.2767 0.0000 -10682.8871 1448.3468 0.0000 0.0000 1722.5842 -7474.8947 294.7446 -9197.4788 -7412.3596 298.5996 145.3185 202.2983 29674.2878 23.5105 82.9395
ENERGY: 1200000 4.3677 11.1948 17.5216 0.0000 -10663.9738 1503.8077 0.0000 0.0000 1776.6798 -7350.4022 304.0007 -9127.0820 -7405.1477 299.2209 501.5445 551.3377 30076.6477 91.7208 150.5528
ENERGY: 1500000 4.7624 13.5724 18.1614 0.0000 -10773.2659 1511.0334 0.0000 0.0000 1748.5335 -7477.2027 299.1847 -9225.7363 -7402.1979 299.9524 521.5340 632.6842 29262.1045 34.1585 93.5140
TCL: Running FEP window  20: Lambda1 0.049999999999999684 Lambda2 0.0    [dLambda -0.049999999999999684]
TCL: Setting parameter firsttimestep to 0
TCL: Setting parameter alchLambda to 0.049999999999999684
Info: NONBONDED TABLE R-SQUARED SPACING: 0.0625
Info: NONBONDED TABLE SIZE: 705 POINTS
TCL: Setting parameter alchLambda2 to 0.0
Info: NONBONDED TABLE R-SQUARED SPACING: 0.0625
Info: NONBONDED TABLE SIZE: 705 POINTS
TCL: Running for 1500000 steps
ETITLE: TS BOND ANGLE DIHED IMPRP ELECT VDW BOUNDARY MISC KINETIC TOTAL TEMP POTENTIAL TOTALAVG TEMPAVG PRESSURE GPRESSURE VOLUME PRESSAVG GPRESSAVG
ENERGY: 0 4.7624 13.5724 18.1614 0.0000 -10773.2658 1509.4761 0.0000 0.0000 1747.6930 -7479.6004 299.0408 -9227.2934 -7479.6004 299.0408 538.4958 620.1935 29262.1045 538.4958 620.1935
ENERGY: 300000 3.3468 11.4021 14.1341 0.0000 -10560.7376 1415.8488 0.0000 0.0000 1688.2873 -7427.7184 288.8762 -9116.0057 -7407.5647 298.7476 5.5407 41.7347 29872.8429 116.0204 178.2487
ENERGY: 600000 2.9621 12.1107 18.3732 0.0000 -10560.5294 1395.6243 0.0000 0.0000 1782.5645 -7348.8947 305.0076 -9131.4592 -7382.0026 299.7966 -353.0650 -329.2607 30099.0219 -94.0946 -27.7392
ENERGY: 900000 4.3860 14.0174 13.6015 0.0000 -10746.2235 1564.4629 0.0000 0.0000 1752.1491 -7397.6066 299.8033 -9149.7556 -7392.9916 299.1787 1143.8392 1191.4319 29699.9612 196.0753 260.9393
ENERGY: 1200000 6.7490 12.9359 16.4749 0.0000 -10686.7687 1436.4099 0.0000 0.0000 1826.1201 -7388.0790 312.4602 -9214.1991 -7396.5243 300.1246 -12.6731 -26.2603 29465.9275 75.7430 129.9438
ENERGY: 1500000 7.5204 13.3799 13.0014 0.0000 -10699.3797 1464.1344 0.0000 0.0000 1755.2652 -7446.0783 300.3365 -9201.3435 -7392.4583 300.4688 16.6615 77.8641 29944.1359 62.2367 118.4293
TCL: Exiting due to exit command.
