Info: SIMULATION PARAMETERS:
Info: TIMESTEP               2
Info: NUMBER OF STEPS        0
Info: STEPS PER CYCLE        10
Info: PERIODIC CELL BASIS 1  34.613 0 0
Info: PERIODIC CELL BASIS 2  0 29.1835 0
Info: PERIODIC CELL BASIS 3  0 0 29.6758
Info: PERIODIC CELL CENTER   0 0 0
Info: WRAPPING WATERS AROUND PERIODIC BOUNDARIES ON OUTPUT.
Info: WRAPPING ALL CLUSTERS AROUND PERIODIC BOUNDARIES ON OUTPUT.
Info: FIRST LDB TIMESTEP     50
Info: LAST LDB TIMESTEP     -1
Info: HOM BACKGROUND SCALING 1
Info: PME BACKGROUND SCALING 1
Info: MIN ATOMS PER PATCH    40
Info: EMPTY PATCH LOAD       40 ATOMS
Info: VELOCITY FILE          mobley_7157427_equil.vel
Info: CENTER OF MASS MOVING INITIALLY? NO
Info: DIELECTRIC             1
Info: EXCLUDE                SCALED ONE-FOUR
Info: 1-4 ELECTROSTATICS SCALED BY 0.833333
Info: MODIFIED 1-4 VDW PARAMETERS WILL BE USED
Info: DCD FILENAME           mobley_7157427_prod.dcd
Info: DCD FREQUENCY          100000
Info: DCD FIRST STEP         100000
Info: DCD FILE WILL CONTAIN UNIT CELL DATA
Info: XST FILENAME           mobley_7157427_prod.xst
Info: XST FREQUENCY          100000
Info: NO VELOCITY DCD OUTPUT
Info: NO FORCE DCD OUTPUT
Info: OUTPUT FILENAME        mobley_7157427_prod
Info: BINARY OUTPUT FILES WILL BE USED
Info: RESTART FILENAME       mobley_7157427_prod.restart
Info: RESTART FREQUENCY      100000
Info: BINARY RESTART FILES WILL BE USED
Info: CUTOFF                 9
Info: PAIRLIST DISTANCE      11
Info: PAIRLIST SHRINK RATE   0.01
Info: PAIRLIST GROW RATE     0.01
Info: PAIRLIST TRIGGER       0.3
Info: PAIRLISTS PER CYCLE    2
Info: PAIRLISTS ENABLED
Info: MARGIN                 2
Info: HYDROGEN GROUP CUTOFF  2.5
Info: PATCH DIMENSION        15.5
Info: ENERGY OUTPUT STEPS    100000
Info: ENERGY EVALUATION STEPS    100000
Info: OUTPUT ENERGY PRECISION 4
Info: CROSSTERM ENERGY INCLUDED IN DIHEDRAL
Info: TIMING OUTPUT STEPS    1000000
Info: PRESSURE OUTPUT STEPS  100000
Info: ALCHEMICAL FEP ON
Info: FEP CURRENT LAMBDA VALUE     0
Info: FEP COMPARISON LAMBDA VALUE  0.05
Info: FEP INTRA-ALCHEMICAL NON-BONDED INTERACTIONS WILL BE RETAINED
Info: FEP INTRA-ALCHEMICAL BONDED INTERACTIONS WILL BE RETAINED
Info: FEP VDW SHIFTING COEFFICIENT 5
Info: FEP ELEC. ACTIVE FOR ANNIHILATED PARTICLES BETWEEN LAMBDA = 0 AND LAMBDA = 0.5
Info: FEP ELEC. ACTIVE FOR EXNIHILATED PARTICLES BETWEEN LAMBDA = 0.5 AND LAMBDA = 1
Info: FEP VDW ACTIVE FOR ANNIHILATED PARTICLES BETWEEN LAMBDA = 0 AND LAMBDA = 1
Info: FEP VDW ACTIVE FOR EXNIHILATED PARTICLES BETWEEN LAMBDA = 0 AND LAMBDA = 1
Info: FEP BOND ACTIVE FOR ANNIHILATED PARTICLES BETWEEN LAMBDA = 1 AND LAMBDA = 1
Info: FEP BOND ACTIVE FOR EXNIHILATED PARTICLES BETWEEN LAMBDA = 0 AND LAMBDA = 0
Info: LANGEVIN DYNAMICS ACTIVE
Info: LANGEVIN TEMPERATURE   300
Info: LANGEVIN USING BBK INTEGRATOR
Info: LANGEVIN DAMPING COEFFICIENT IS 1 INVERSE PS
Info: LANGEVIN DYNAMICS APPLIED TO HYDROGENS
Info: LANGEVIN PISTON PRESSURE CONTROL ACTIVE
Info:        TARGET PRESSURE IS 1.01325 BAR
Info:     OSCILLATION PERIOD IS 50 FS
Info:             DECAY TIME IS 25 FS
Info:     PISTON TEMPERATURE IS 300 K
Info:       PRESSURE CONTROL IS GROUP-BASED
Info:    INITIAL STRAIN RATE IS -8.78326e-05 -8.78326e-05 -8.78326e-05
Info:       CELL FLUCTUATION IS ISOTROPIC
Info: PARTICLE MESH EWALD (PME) ACTIVE
Info: PME TOLERANCE               1e-06
Info: PME EWALD COEFFICIENT       0.348832
Info: PME INTERPOLATION ORDER     4
Info: PME GRID DIMENSIONS         36 32 32
Info: PME MAXIMUM GRID SPACING    1
Info: PME CALCULATION WILL BE PERFORMED ON GPU
Info: FULL ELECTROSTATIC EVALUATION FREQUENCY      2
Info: USING VERLET I (r-RESPA) MTS SCHEME.
Info: C1 SPLITTING OF LONG RANGE ELECTROSTATICS
Info: PLACING ATOMS IN PATCHES BY HYDROGEN GROUPS
Info: RIGID BONDS TO HYDROGEN : ALL
Info:         ERROR TOLERANCE : 1e-08
Info:          MAX ITERATIONS : 100
Info: RIGID WATER USING SETTLE ALGORITHM
Info: RANDOM NUMBER SEED     1744014493
Info: USE HYDROGEN BONDS?    NO
Info: Using AMBER format force field!
Info: AMBER PARM FILE        mobley_7157427.prmtop
Info: COORDINATE PDB         mobley_7157427.pdb
Info: Exclusions will be read from PARM file!
Info: SCNB (VDW SCALING)     2
Info: USING ARITHMETIC MEAN TO COMBINE L-J SIGMA PARAMETERS
Info: BINARY COORDINATES     mobley_7157427_equil.coor
Info: SUMMARY OF PARAMETERS:
Info: 6 BONDS
Info: 7 ANGLES
Info:   7 HARMONIC
Info:   0 COSINE-BASED
Info: 8 DIHEDRAL
Info: 0 IMPROPER
Info: 0 CROSSTERM
Info: 0 VDW
Info: 21 VDW_PAIRS
Info: 0 NBTHOLE_PAIRS
Info: To read alchdata from file: mobley_7157427.pdb
Info: To read alchflag data from column: 5
Info: STRUCTURE SUMMARY:
Info: 2936 ATOMS
Info: 2935 BONDS
Info: 42 ANGLES
Info: 64 DIHEDRALS
Info: 0 IMPROPERS
Info: 0 CROSSTERMS
Info: 3031 EXCLUSIONS
Info: 2928 RIGID BONDS
Info: ALCH: 0 ATOMS TO DISAPPEAR IN FINAL STATE
Info: ALCH: 23 ATOMS TO APPEAR IN FINAL STATE
Info: 5880 DEGREES OF FREEDOM
Info: 979 HYDROGEN GROUPS
Info: 4 ATOMS IN LARGEST HYDROGEN GROUP
Info: 979 MIGRATION GROUPS
Info: 4 ATOMS IN LARGEST MIGRATION GROUP
Info: TOTAL MASS = 17628.2 amu
Info: TOTAL CHARGE = -0.000200003 e
Info: MASS DENSITY = 0.976532 g/cm^3
Info: ATOM DENSITY = 0.0979436 atoms/A^3
Info: ADDED 0 IMPLICIT EXCLUSIONS
Info: NONBONDED TABLE R-SQUARED SPACING: 0.0625
Info: NONBONDED TABLE SIZE: 705 POINTS
Info: REMOVING COM VELOCITY 0.0149501 -0.0208998 0.218535
Info: Use 3D box decompostion in PME FFT.
Info: Updated CUDA force table with 4096 elements.
Info: Updated CUDA LJ table with 6 x 6 elements.
Info: Found 26 unique exclusion lists needing 84 bytes
TCL: Running for 1500000 steps
ETITLE: TS BOND ANGLE DIHED IMPRP ELECT VDW BOUNDARY MISC KINETIC TOTAL TEMP POTENTIAL TOTALAVG TEMPAVG PRESSURE GPRESSURE VOLUME PRESSAVG GPRESSAVG
ENERGY: 0 1.6675 12.1824 4.9301 0.0000 -10604.6906 1422.7218 0.0000 0.0000 1772.3471 -7390.8417 303.3625 -9163.1888 -7390.8417 303.3625 34.6947 113.0597 29976.4328 34.6947 113.0597
ENERGY: 300000 1.6565 9.5470 4.2655 0.0000 -10589.0651 1382.9978 0.0000 0.0000 1768.7077 -7421.8906 302.7395 -9190.5983 -7397.6046 301.7053 -560.6626 -487.4003 29959.8990 -246.3744 -177.7373
ENERGY: 600000 0.5669 9.3966 3.6385 0.0000 -10561.4408 1438.9280 0.0000 0.0000 1755.6600 -7353.2509 300.5062 -9108.9109 -7384.2221 304.6027 72.7053 113.0668 30312.6711 -210.8608 -141.1698
ENERGY: 900000 5.6098 8.9003 3.6760 0.0000 -10727.1274 1515.3930 0.0000 0.0000 1812.5116 -7381.0367 310.2372 -9193.5483 -7392.6163 304.4370 734.9617 737.6389 29799.6581 -24.7659 46.8954
ENERGY: 1200000 2.3906 7.8272 4.6767 0.0000 -10642.0089 1403.4832 0.0000 0.0000 1782.8545 -7440.7768 305.1610 -9223.6313 -7390.7509 304.3220 -523.6639 -397.4779 30181.2520 -93.3504 -22.8091
ENERGY: 1500000 1.6297 9.8085 4.1579 0.0000 -10692.3007 1496.8908 0.0000 0.0000 1759.7417 -7420.0721 301.2049 -9179.8138 -7387.9714 303.5837 760.8395 793.9944 29539.5793 -81.9648 -14.1045
TCL: Running FEP window   2: Lambda1 0.05   Lambda2 0.1    [dLambda 0.05  ]
TCL: Setting parameter firsttimestep to 0
TCL: Setting parameter alchLambda to 0.05
Info: NONBONDED TABLE R-SQUARED SPACING: 0.0625
Info: NONBONDED TABLE SIZE: 705 POINTS
TCL: Setting parameter alchLambda2 to 0.1
Info: NONBONDED TABLE R-SQUARED SPACING: 0.0625
Info: NONBONDED TABLE SIZE: 705 POINTS
TCL: Running for 1500000 steps
ETITLE: TS BOND ANGLE DIHED IMPRP ELECT VDW BOUNDARY MISC KINETIC TOTAL TEMP POTENTIAL TOTALAVG TEMPAVG PRESSURE GPRESSURE VOLUME PRESSAVG GPRESSAVG
ENERGY: 0 1.6297 9.8085 4.1579 0.0000 -10692.3030 1498.1458 0.0000 0.0000 1758.8409 -7419.7203 301.0507 -9178.5612 -7419.7203 301.0507 718.1282 802.6752 29539.5793 718.1282 802.6752
ENERGY: 300000 1.4452 9.8620 6.6483 0.0000 -10599.8884 1377.5835 0.0000 0.0000 1765.1534 -7439.1960 302.1312 -9204.3495 -7401.9272 298.6390 -311.7851 -230.5609 29748.2909 -100.3075 -27.1520
ENERGY: 600000 1.2969 9.2304 3.7838 0.0000 -10687.8655 1467.2213 0.0000 0.0000 1770.0319 -7436.3013 302.9662 -9206.3332 -7399.5340 300.2707 -63.2950 -17.6075 30290.4139 -70.1364 1.2567
ENERGY: 900000 1.2191 11.4722 3.5095 0.0000 -10635.9219 1459.7545 0.0000 0.0000 1783.1659 -7376.8007 305.2142 -9159.9665 -7390.1476 302.1562 339.5509 437.1513 29894.1820 33.9650 106.4234
ENERGY: 1200000 0.8743 11.8124 4.6106 0.0000 -10583.9400 1417.4968 0.0000 0.0000 1771.3114 -7377.8345 303.1852 -9149.1459 -7386.3711 302.3091 -310.0009 -157.0200 30491.3940 19.5158 93.3503
ENERGY: 1500000 3.3831 11.6406 3.3999 0.0000 -10598.1632 1454.1228 0.0000 0.0000 1735.3106 -7390.3062 297.0231 -9125.6168 -7389.7348 301.7617 544.3343 591.9118 29564.7305 36.7052 107.8939
TCL: Running FEP window   3: Lambda1 0.1    Lambda2 0.15000000000000002 [dLambda 0.05000000000000002]
TCL: Setting parameter firsttimestep to 0
TCL: Setting parameter alchLambda to 0.1
Info: NONBONDED TABLE R-SQUARED SPACING: 0.0625
Info: NONBONDED TABLE SIZE: 705 POINTS
TCL: Setting parameter alchLambda2 to 0.15000000000000002
Info: NONBONDED TABLE R-SQUARED SPACING: 0.0625
Info: NONBONDED TABLE SIZE: 705 POINTS
TCL: Running for 1500000 steps
ETITLE: TS BOND ANGLE DIHED IMPRP ELECT VDW BOUNDARY MISC KINETIC TOTAL TEMP POTENTIAL TOTALAVG TEMPAVG PRESSURE GPRESSURE VOLUME PRESSAVG GPRESSAVG
ENERGY: 0 3.3831 11.6406 3.3999 0.0000 -10598.1624 1455.1358 0.0000 0.0000 1734.4344 -7390.1686 296.8732 -9124.6030 -7390.1686 296.8732 512.9049 598.1734 29564.7305 512.9049 598.1734
ENERGY: 300000 1.4559 14.0521 4.4949 0.0000 -10577.2644 1425.7461 0.0000 0.0000 1742.7880 -7388.7274 298.3030 -9131.5154 -7401.0780 298.4024 273.3380 309.5234 29824.3637 -93.9223 -55.8026
ENERGY: 600000 7.0571 12.9078 6.2094 0.0000 -10599.4126 1445.9741 0.0000 0.0000 1840.9926 -7286.2715 315.1121 -9127.2641 -7390.7598 299.2220 87.3187 183.8872 29817.7025 -52.2808 5.0631
ENERGY: 900000 1.6533 10.3859 4.2675 0.0000 -10709.0375 1447.1772 0.0000 0.0000 1726.5461 -7519.0075 295.5230 -9245.5536 -7406.4025 299.1687 54.7269 118.0084 29560.7317 -110.2878 -41.8466
ENERGY: 1200000 3.2620 8.6933 5.8603 0.0000 -10562.9852 1422.9825 0.0000 0.0000 1794.1400 -7328.0471 307.0926 -9122.1871 -7397.5150 299.2773 -62.0161 8.7458 30267.2746 -49.4505 14.5894
ENERGY: 1500000 3.4885 12.0538 3.1180 0.0000 -10768.2989 1403.7752 0.0000 0.0000 1764.7704 -7581.0931 302.0656 -9345.8635 -7411.4435 299.8951 -639.6088 -591.4429 29729.2419 -69.3111 -9.8591
TCL: Running FEP window   4: Lambda1 0.15000000000000002 Lambda2 0.2    [dLambda 0.04999999999999999]
TCL: Setting parameter firsttimestep to 0
TCL: Setting parameter alchLambda to 0.15000000000000002
Info: NONBONDED TABLE R-SQUARED SPACING: 0.0625
Info: NONBONDED TABLE SIZE: 705 POINTS
TCL: Setting parameter alchLambda2 to 0.2
Info: NONBONDED TABLE R-SQUARED SPACING: 0.0625
Info: NONBONDED TABLE SIZE: 705 POINTS
TCL: Running for 1500000 steps
ETITLE: TS BOND ANGLE DIHED IMPRP ELECT VDW BOUNDARY MISC KINETIC TOTAL TEMP POTENTIAL TOTALAVG TEMPAVG PRESSURE GPRESSURE VOLUME PRESSAVG GPRESSAVG
ENERGY: 0 3.4885 12.0538 3.1180 0.0000 -10768.2992 1405.1336 0.0000 0.0000 1763.9449 -7580.5604 301.9243 -9344.5054 -7580.5604 301.9243 -668.2167 -580.0719 29729.2419 -668.2167 -580.0719
ENERGY: 300000 1.6340 6.9871 4.2107 0.0000 -10577.7487 1404.9777 0.0000 0.0000 1779.9022 -7380.0370 304.6556 -9159.9393 -7463.4171 302.2646 -331.5707 -243.9884 30249.7020 -66.8032 33.9879
ENERGY: 600000 1.6128 7.0950 4.6255 0.0000 -10596.0917 1463.8266 0.0000 0.0000 1741.5528 -7377.3790 298.0916 -9118.9318 -7411.5611 301.8296 626.1991 673.7388 29669.4941 82.5143 166.3225
ENERGY: 900000 1.1834 7.4528 4.7944 0.0000 -10532.4338 1414.9992 0.0000 0.0000 1762.4654 -7341.5386 301.6711 -9104.0040 -7399.1337 301.6122 54.3576 77.3115 30302.2348 119.6091 193.1023
ENERGY: 1200000 3.9141 9.6343 3.4482 0.0000 -10623.3559 1402.6568 0.0000 0.0000 1679.1087 -7524.5938 287.4034 -9203.7025 -7414.0985 300.4138 -73.5002 -68.9101 29484.3343 101.1753 171.7458
ENERGY: 1500000 0.5867 11.0190 3.8785 0.0000 -10675.7380 1451.7873 0.0000 0.0000 1772.6357 -7435.8308 303.4119 -9208.4665 -7419.3402 300.7229 244.8754 282.8979 29711.6345 61.5035 127.6006
TCL: Running FEP window   5: Lambda1 0.2    Lambda2 0.25   [dLambda 0.04999999999999999]
TCL: Setting parameter firsttimestep to 0
TCL: Setting parameter alchLambda to 0.2
Info: NONBONDED TABLE R-SQUARED SPACING: 0.0625
Info: NONBONDED TABLE SIZE: 705 POINTS
TCL: Setting parameter alchLambda2 to 0.25
Info: NONBONDED TABLE R-SQUARED SPACING: 0.0625
Info: NONBONDED TABLE SIZE: 705 POINTS
TCL: Running for 1500000 steps
ETITLE: TS BOND ANGLE DIHED IMPRP ELECT VDW BOUNDARY MISC KINETIC TOTAL TEMP POTENTIAL TOTALAVG TEMPAVG PRESSURE GPRESSURE VOLUME PRESSAVG GPRESSAVG
ENERGY: 0 0.5867 11.0190 3.8785 0.0000 -10675.7371 1452.2176 0.0000 0.0000 1771.7709 -7436.2644 303.2638 -9208.0353 -7436.2644 303.2638 218.8954 290.2891 29711.6345 218.8954 290.2891
ENERGY: 300000 2.9057 12.5411 6.3880 0.0000 -10555.8104 1422.1318 0.0000 0.0000 1801.4143 -7310.4295 308.3377 -9111.8438 -7372.6190 305.7436 25.9656 134.5595 30012.6890 94.6587 158.4606
ENERGY: 600000 4.4398 10.0989 4.4973 0.0000 -10503.0902 1373.1033 0.0000 0.0000 1776.0487 -7334.9021 303.9960 -9110.9508 -7375.5869 303.8688 -508.5380 -467.1532 30401.4574 -52.3373 7.8443
ENERGY: 900000 2.2360 10.6055 4.4399 0.0000 -10700.5296 1517.6918 0.0000 0.0000 1724.6296 -7440.9269 295.1949 -9165.5565 -7392.5905 302.2181 425.8287 550.0680 30149.8143 78.7680 153.4123
ENERGY: 1200000 2.2912 9.1626 3.3025 0.0000 -10630.0843 1409.2273 0.0000 0.0000 1724.7886 -7481.3120 295.2221 -9206.1006 -7401.3236 301.2795 -335.5773 -236.6099 29827.9985 22.7106 92.7309
ENERGY: 1500000 3.5289 7.1861 4.8588 0.0000 -10668.3389 1470.2894 0.0000 0.0000 1742.2749 -7440.2006 298.2152 -9182.4756 -7404.0313 300.9597 214.7516 198.8207 30050.9543 89.7588 153.8436
TCL: Running FEP window   6: Lambda1 0.25   Lambda2 0.3    [dLambda 0.04999999999999999]
TCL: Setting parameter firsttimestep to 0
TCL: Setting parameter alchLambda to 0.25
Info: NONBONDED TABLE R-SQUARED SPACING: 0.0625
Info: NONBONDED TABLE SIZE: 705 POINTS
TCL: Setting parameter alchLambda2 to 0.3
Info: NONBONDED TABLE R-SQUARED SPACING: 0.0625
Info: NONBONDED TABLE SIZE: 705 POINTS
TCL: Running for 1500000 steps
ETITLE: TS BOND ANGLE DIHED IMPRP ELECT VDW BOUNDARY MISC KINETIC TOTAL TEMP POTENTIAL TOTALAVG TEMPAVG PRESSURE GPRESSURE VOLUME PRESSAVG GPRESSAVG
ENERGY: 0 3.5289 7.1861 4.8588 0.0000 -10668.3387 1472.6454 0.0000 0.0000 1741.4139 -7438.7055 298.0678 -9180.1194 -7438.7055 298.0678 125.2682 216.5770 30050.9543 125.2682 216.5770
ENERGY: 300000 1.8534 15.5624 3.1624 0.0000 -10496.1014 1303.0873 0.0000 0.0000 1740.4931 -7431.9429 297.9102 -9172.4359 -7428.3977 299.2005 -934.7324 -831.7218 29982.4548 -156.9246 -57.1058
ENERGY: 600000 2.6168 13.2822 3.7461 0.0000 -10600.6041 1406.3160 0.0000 0.0000 1781.4087 -7393.2344 304.9135 -9174.6430 -7420.9347 299.4010 -169.1673 -133.7626 29917.8555 -247.5101 -166.5304
ENERGY: 900000 2.6933 9.6600 3.3726 0.0000 -10634.1598 1426.5631 0.0000 0.0000 1764.7537 -7427.1171 302.0627 -9191.8708 -7416.1033 299.2993 123.1946 183.7036 29901.1466 -106.4522 -30.5887
ENERGY: 1200000 0.7086 11.2776 5.1955 0.0000 -10634.4696 1470.1887 0.0000 0.0000 1714.9660 -7432.1332 293.5409 -9147.0992 -7412.5308 299.1066 487.4826 541.8156 30025.5761 -68.7823 5.2498
ENERGY: 1500000 0.2541 14.1641 4.9409 0.0000 -10524.2305 1348.4605 0.0000 0.0000 1787.5060 -7368.9049 305.9571 -9156.4109 -7412.2613 299.4158 -652.8353 -639.4950 30330.7842 -156.2945 -88.1340
TCL: Running FEP window   7: Lambda1 0.3    Lambda2 0.35   [dLambda 0.04999999999999999]
TCL: Setting parameter firsttimestep to 0
TCL: Setting parameter alchLambda to 0.3
Info: NONBONDED TABLE R-SQUARED SPACING: 0.0625
Info: NONBONDED TABLE SIZE: 705 POINTS
TCL: Setting parameter alchLambda2 to 0.35
Info: NONBONDED TABLE R-SQUARED SPACING: 0.0625
Info: NONBONDED TABLE SIZE: 705 POINTS
TCL: Running for 1500000 steps
ETITLE: TS BOND ANGLE DIHED IMPRP ELECT VDW BOUNDARY MISC KINETIC TOTAL TEMP POTENTIAL TOTALAVG TEMPAVG PRESSURE GPRESSURE VOLUME PRESSAVG GPRESSAVG
ENERGY: 0 0.2541 14.1641 4.9409 0.0000 -10524.2309 1350.1766 0.0000 0.0000 1786.6026 -7368.0925 305.8025 -9154.6951 -7368.0925 305.8025 -690.1231 -625.2547 30330.7842 -690.1231 -625.2547
ENERGY: 300000 3.7635 8.2411 4.0586 0.0000 -10579.9608 1333.5126 0.0000 0.0000 1810.4646 -7419.9204 309.8868 -9230.3850 -7392.5769 303.1047 -1191.4137 -1088.3321 30160.1281 -590.6606 -528.6592
ENERGY: 600000 1.0268 14.5666 3.5929 0.0000 -10598.1900 1448.5183 0.0000 0.0000 1763.0553 -7367.4301 301.7720 -9130.4854 -7394.3620 301.4620 229.6183 318.9631 30154.4768 -362.1003 -305.8867
ENERGY: 900000 5.5470 10.0128 2.9950 0.0000 -10479.4568 1304.5779 0.0000 0.0000 1642.8081 -7513.5160 281.1900 -9156.3241 -7395.7952 299.8592 -1301.6583 -1216.0324 30311.0819 -375.9840 -320.5652
ENERGY: 1200000 1.4897 9.9101 3.9314 0.0000 -10409.9823 1313.2649 0.0000 0.0000 1774.0790 -7307.3072 303.6589 -9081.3861 -7394.4405 300.0275 -725.4339 -581.1163 30332.4309 -389.1540 -317.8041
ENERGY: 1500000 1.3434 13.2410 6.7219 0.0000 -10676.6764 1449.2741 0.0000 0.0000 1752.4535 -7453.6426 299.9574 -9206.0961 -7397.4580 300.0770 58.6474 91.0994 29838.8549 -343.9456 -272.9917
TCL: Running FEP window   8: Lambda1 0.35   Lambda2 0.39999999999999997 [dLambda 0.04999999999999999]
TCL: Setting parameter firsttimestep to 0
TCL: Setting parameter alchLambda to 0.35
Info: NONBONDED TABLE R-SQUARED SPACING: 0.0625
Info: NONBONDED TABLE SIZE: 705 POINTS
TCL: Setting parameter alchLambda2 to 0.39999999999999997
Info: NONBONDED TABLE R-SQUARED SPACING: 0.0625
Info: NONBONDED TABLE SIZE: 705 POINTS
TCL: Running for 1500000 steps
ETITLE: TS BOND ANGLE DIHED IMPRP ELECT VDW BOUNDARY MISC KINETIC TOTAL TEMP POTENTIAL TOTALAVG TEMPAVG PRESSURE GPRESSURE VOLUME PRESSAVG GPRESSAVG
ENERGY: 0 1.3434 13.2410 6.7219 0.0000 -10676.6762 1448.8397 0.0000 0.0000 1751.6102 -7454.9200 299.8131 -9206.5302 -7454.9200 299.8131 20.4128 93.1556 29838.8549 20.4128 93.1556
ENERGY: 300000 3.1002 7.3896 4.0071 0.0000 -10583.5845 1390.2236 0.0000 0.0000 1767.6482 -7411.2159 302.5582 -9178.8640 -7399.5119 300.0897 -362.6196 -346.2555 30160.1933 -170.3388 -107.6221
ENERGY: 600000 4.2660 7.8029 4.0694 0.0000 -10591.2575 1430.0360 0.0000 0.0000 1721.8523 -7423.2309 294.7196 -9145.0832 -7405.3541 298.7446 -15.8276 42.2124 30127.4091 15.4172 69.7435
ENERGY: 900000 1.8119 14.6786 5.5034 0.0000 -10564.1207 1453.0541 0.0000 0.0000 1767.3727 -7321.7000 302.5110 -9089.0727 -7398.9813 298.2210 286.2951 325.0711 30341.2324 -1.6767 53.3665
ENERGY: 1200000 1.9742 11.4354 4.7797 0.0000 -10596.0031 1414.6005 0.0000 0.0000 1762.5304 -7400.6829 301.6822 -9163.2133 -7406.8021 297.9112 -229.5780 -259.4032 30353.5483 -60.0268 -7.1257
ENERGY: 1500000 4.4068 9.6505 4.4629 0.0000 -10446.4740 1342.3535 0.0000 0.0000 1795.5916 -7290.0086 307.3411 -9085.6002 -7406.7842 298.5470 -331.1712 -193.1562 29871.0057 -112.4649 -49.2128
TCL: Running FEP window   9: Lambda1 0.39999999999999997 Lambda2 0.44999999999999996 [dLambda 0.04999999999999999]
TCL: Setting parameter firsttimestep to 0
TCL: Setting parameter alchLambda to 0.39999999999999997
Info: NONBONDED TABLE R-SQUARED SPACING: 0.0625
Info: NONBONDED TABLE SIZE: 705 POINTS
TCL: Setting parameter alchLambda2 to 0.44999999999999996
Info: NONBONDED TABLE R-SQUARED SPACING: 0.0625
Info: NONBONDED TABLE SIZE: 705 POINTS
TCL: Running for 1500000 steps
ETITLE: TS BOND ANGLE DIHED IMPRP ELECT VDW BOUNDARY MISC KINETIC TOTAL TEMP POTENTIAL TOTALAVG TEMPAVG PRESSURE GPRESSURE VOLUME PRESSAVG GPRESSAVG
ENERGY: 0 4.4068 9.6505 4.4629 0.0000 -10446.4736 1342.2530 0.0000 0.0000 1794.7280 -7290.9724 307.1933 -9085.7004 -7290.9724 307.1933 -273.8421 -189.1283 29871.0057 -273.8421 -189.1283
ENERGY: 300000 3.3779 10.8949 3.0559 0.0000 -10623.0424 1480.3625 0.0000 0.0000 1773.1235 -7352.2277 303.4954 -9125.3512 -7361.7579 301.6971 541.2211 541.9854 30241.8087 23.0091 64.5162
ENERGY: 600000 2.3735 10.6859 4.1976 0.0000 -10572.7497 1424.2507 0.0000 0.0000 1786.7862 -7344.4557 305.8339 -9131.2419 -7390.6083 301.0036 -90.4419 -3.9648 30583.1156 -49.3358 6.7788
ENERGY: 900000 1.9190 7.4390 3.4073 0.0000 -10552.1445 1373.5576 0.0000 0.0000 1777.3484 -7388.4732 304.2185 -9165.8216 -7409.2274 301.9111 -541.8930 -461.3615 30106.2810 -135.9444 -79.1785
ENERGY: 1200000 2.2617 8.5681 3.4014 0.0000 -10650.8380 1456.4626 0.0000 0.0000 1729.2223 -7450.9220 295.9810 -9180.1442 -7410.9673 301.0578 -55.1436 46.4573 30487.1091 -87.3426 -32.5057
ENERGY: 1500000 2.6170 10.9046 4.4107 0.0000 -10546.7470 1340.0555 0.0000 0.0000 1799.2837 -7389.4755 307.9730 -9188.7592 -7408.5148 301.4538 -532.4691 -496.7830 30069.5868 -82.4254 -30.8554
TCL: Running FEP window  10: Lambda1 0.44999999999999996 Lambda2 0.49999999999999994 [dLambda 0.04999999999999999]
TCL: Setting parameter firsttimestep to 0
TCL: Setting parameter alchLambda to 0.44999999999999996
Info: NONBONDED TABLE R-SQUARED SPACING: 0.0625
Info: NONBONDED TABLE SIZE: 705 POINTS
TCL: Setting parameter alchLambda2 to 0.49999999999999994
Info: NONBONDED TABLE R-SQUARED SPACING: 0.0625
Info: NONBONDED TABLE SIZE: 705 POINTS
TCL: Running for 1500000 steps
ETITLE: TS BOND ANGLE DIHED IMPRP ELECT VDW BOUNDARY MISC KINETIC TOTAL TEMP POTENTIAL TOTALAVG TEMPAVG PRESSURE GPRESSURE VOLUME PRESSAVG GPRESSAVG
ENERGY: 0 2.6170 10.9046 4.4107 0.0000 -10546.7474 1339.3447 0.0000 0.0000 1798.3890 -7391.0814 307.8199 -9189.4704 -7391.0814 307.8199 -571.5117 -494.0368 30069.5868 -571.5117 -494.0368
ENERGY: 300000 0.2412 10.6029 3.2737 0.0000 -10584.0643 1438.1032 0.0000 0.0000 1754.5388 -7377.3046 300.3143 -9131.8434 -7409.9799 302.0153 209.1792 274.7912 30203.0082 183.6010 255.8021
ENERGY: 600000 4.6836 14.4063 7.1701 0.0000 -10579.4007 1393.1226 0.0000 0.0000 1777.6210 -7382.3971 304.2652 -9160.0181 -7407.4566 301.0845 -484.3171 -469.2832 30361.5353 64.0799 126.5987
ENERGY: 900000 0.6773 12.6163 4.1558 0.0000 -10614.6575 1394.4366 0.0000 0.0000 1755.2843 -7447.4873 300.4419 -9202.7716 -7410.0782 300.7149 -319.1953 -293.4103 29998.4818 36.9205 95.7827
ENERGY: 1200000 3.0645 13.0650 3.4753 0.0000 -10708.6440 1447.0609 0.0000 0.0000 1755.3057 -7486.6726 300.4456 -9241.9783 -7414.6494 301.2426 -27.5220 43.5745 29831.3306 -6.4140 54.9054
ENERGY: 1500000 1.7331 13.6104 3.3462 0.0000 -10571.1160 1408.0198 0.0000 0.0000 1755.9448 -7388.4618 300.5550 -9144.4066 -7406.0584 300.9723 -131.3108 -95.8933 30361.3095 -80.9342 -26.9708
TCL: Running FEP window  11: Lambda1 0.49999999999999994 Lambda2 0.5499999999999999 [dLambda 0.04999999999999999]
TCL: Setting parameter firsttimestep to 0
TCL: Setting parameter alchLambda to 0.49999999999999994
Info: NONBONDED TABLE R-SQUARED SPACING: 0.0625
Info: NONBONDED TABLE SIZE: 705 POINTS
TCL: Setting parameter alchLambda2 to 0.5499999999999999
Info: NONBONDED TABLE R-SQUARED SPACING: 0.0625
Info: NONBONDED TABLE SIZE: 705 POINTS
TCL: Running for 1500000 steps
ETITLE: TS BOND ANGLE DIHED IMPRP ELECT VDW BOUNDARY MISC KINETIC TOTAL TEMP POTENTIAL TOTALAVG TEMPAVG PRESSURE GPRESSURE VOLUME PRESSAVG GPRESSAVG
ENERGY: 0 1.7331 13.6104 3.3462 0.0000 -10571.1168 1407.5117 0.0000 0.0000 1755.0836 -7389.8319 300.4076 -9144.9155 -7389.8319 300.4076 -184.7647 -91.9804 30361.3095 -184.7647 -91.9804
ENERGY: 300000 2.6985 9.1096 4.8216 0.0000 -10651.0841 1484.0978 0.0000 0.0000 1725.9802 -7424.3765 295.4261 -9150.3567 -7377.4127 301.7079 298.0633 368.0418 30417.3917 -90.1692 -5.8426
ENERGY: 600000 2.5135 9.1002 4.2176 0.0000 -10679.4654 1434.8477 0.0000 0.0000 1769.9656 -7458.8208 302.9548 -9228.7863 -7391.1460 302.5474 -54.9687 -36.1296 29897.3667 -142.6066 -84.1258
ENERGY: 900000 0.5778 14.8389 3.7364 0.0000 -10615.7554 1424.7355 0.0000 0.0000 1747.4151 -7424.4517 299.0950 -9171.8668 -7392.3594 303.1057 39.8210 117.5448 29969.5980 -160.8935 -94.8531
ENERGY: 1200000 3.0033 11.7789 5.3625 0.0000 -10698.7410 1466.5935 0.0000 0.0000 1696.0681 -7515.9347 290.3062 -9212.0027 -7402.7064 301.7372 328.0840 365.2649 29921.2298 -134.6242 -71.9791
ENERGY: 1500000 3.4915 11.1015 4.1531 0.0000 -10658.9873 1421.4014 0.0000 0.0000 1747.4116 -7471.4283 299.0944 -9218.8399 -7411.2050 301.5731 -392.9830 -301.9779 30137.2725 -223.6697 -162.6007
TCL: Running FEP window  12: Lambda1 0.5499999999999999 Lambda2 0.6    [dLambda 0.050000000000000044]
TCL: Setting parameter firsttimestep to 0
TCL: Setting parameter alchLambda to 0.5499999999999999
Info: NONBONDED TABLE R-SQUARED SPACING: 0.0625
Info: NONBONDED TABLE SIZE: 705 POINTS
TCL: Setting parameter alchLambda2 to 0.6
Info: NONBONDED TABLE R-SQUARED SPACING: 0.0625
Info: NONBONDED TABLE SIZE: 705 POINTS
TCL: Running for 1500000 steps
ETITLE: TS BOND ANGLE DIHED IMPRP ELECT VDW BOUNDARY MISC KINETIC TOTAL TEMP POTENTIAL TOTALAVG TEMPAVG PRESSURE GPRESSURE VOLUME PRESSAVG GPRESSAVG
ENERGY: 0 3.4915 11.1015 4.1531 0.0000 -10659.0420 1421.1602 0.0000 0.0000 1746.5042 -7472.6317 298.9391 -9219.1358 -7472.6317 298.9391 -382.9713 -295.3254 30137.2725 -382.9713 -295.3254
ENERGY: 300000 3.5887 15.5017 3.2219 0.0000 -10616.7417 1436.1547 0.0000 0.0000 1754.1994 -7404.0752 300.2562 -9158.2746 -7453.2040 297.0821 105.4189 201.8839 30094.1939 -170.0199 -91.7692
ENERGY: 600000 2.8699 8.9624 4.7305 0.0000 -10677.9078 1453.0462 0.0000 0.0000 1768.4662 -7439.8325 302.6982 -9208.2988 -7425.8739 300.4790 118.9508 198.7986 30010.9645 -176.8101 -105.7563
ENERGY: 900000 0.8620 8.3054 4.1830 0.0000 -10595.7888 1397.5442 0.0000 0.0000 1761.0051 -7423.8892 301.4211 -9184.8943 -7427.1245 300.3073 -244.7944 -117.5112 30025.9918 -202.5375 -125.4853
ENERGY: 1200000 1.0862 11.8068 3.2694 0.0000 -10571.5058 1407.8571 0.0000 0.0000 1798.6094 -7348.8769 307.8576 -9147.4863 -7408.2535 301.9945 209.9439 274.4696 29912.8101 -212.3735 -139.7659
ENERGY: 1500000 3.0195 14.8175 3.7939 0.0000 -10553.0682 1369.1320 0.0000 0.0000 1766.6070 -7395.6983 302.3800 -9162.3054 -7408.3959 301.9503 -615.7128 -496.1056 30721.0839 -278.3400 -202.0229
TCL: Running FEP window  13: Lambda1 0.6    Lambda2 0.65   [dLambda 0.050000000000000044]
TCL: Setting parameter firsttimestep to 0
TCL: Setting parameter alchLambda to 0.6
Info: NONBONDED TABLE R-SQUARED SPACING: 0.0625
Info: NONBONDED TABLE SIZE: 705 POINTS
TCL: Setting parameter alchLambda2 to 0.65
Info: NONBONDED TABLE R-SQUARED SPACING: 0.0625
Info: NONBONDED TABLE SIZE: 705 POINTS
TCL: Running for 1500000 steps
ETITLE: TS BOND ANGLE DIHED IMPRP ELECT VDW BOUNDARY MISC KINETIC TOTAL TEMP POTENTIAL TOTALAVG TEMPAVG PRESSURE GPRESSURE VOLUME PRESSAVG GPRESSAVG
ENERGY: 0 3.0195 14.8175 3.7939 0.0000 -10553.0962 1369.1950 0.0000 0.0000 1765.7154 -7396.5548 302.2274 -9162.2703 -7396.5548 302.2274 -584.1078 -487.3258 30721.0839 -584.1078 -487.3258
ENERGY: 300000 2.9541 6.6905 2.5202 0.0000 -10646.4210 1388.0373 0.0000 0.0000 1786.0188 -7460.2001 305.7026 -9246.2189 -7443.6829 300.3340 -396.6710 -354.3666 30026.0858 -159.3149 -89.4516
ENERGY: 600000 2.3210 10.9891 3.2005 0.0000 -10645.1980 1504.2420 0.0000 0.0000 1700.3114 -7424.1341 291.0325 -9124.4455 -7431.3490 298.8060 721.9011 768.6687 30171.2336 17.9243 83.3910
ENERGY: 900000 2.2644 10.4753 3.1859 0.0000 -10677.2688 1437.1568 0.0000 0.0000 1683.3307 -7540.8558 288.1260 -9224.1865 -7428.8229 297.4018 -103.2937 -32.9500 30300.6452 -48.8912 17.7616
ENERGY: 1200000 2.0022 12.4852 5.8517 0.0000 -10533.6340 1376.4685 0.0000 0.0000 1745.3792 -7391.4473 298.7465 -9136.8265 -7416.2033 298.3037 -493.8341 -436.2658 30826.4862 -85.6874 -21.3469
ENERGY: 1500000 3.0326 8.3377 3.3022 0.0000 -10604.1482 1390.6709 0.0000 0.0000 1740.1522 -7458.6526 297.8518 -9198.8049 -7425.2393 297.9839 -274.7610 -234.4835 30171.3331 -56.8110 6.6076
TCL: Running FEP window  14: Lambda1 0.65   Lambda2 0.7000000000000001 [dLambda 0.050000000000000044]
TCL: Setting parameter firsttimestep to 0
TCL: Setting parameter alchLambda to 0.65
Info: NONBONDED TABLE R-SQUARED SPACING: 0.0625
Info: NONBONDED TABLE SIZE: 705 POINTS
TCL: Setting parameter alchLambda2 to 0.7000000000000001
Info: NONBONDED TABLE R-SQUARED SPACING: 0.0625
Info: NONBONDED TABLE SIZE: 705 POINTS
TCL: Running for 1500000 steps
ETITLE: TS BOND ANGLE DIHED IMPRP ELECT VDW BOUNDARY MISC KINETIC TOTAL TEMP POTENTIAL TOTALAVG TEMPAVG PRESSURE GPRESSURE VOLUME PRESSAVG GPRESSAVG
ENERGY: 0 3.0326 8.3377 3.3022 0.0000 -10604.2445 1391.0207 0.0000 0.0000 1739.2379 -7459.3135 297.6953 -9198.5513 -7459.3135 297.6953 -289.0601 -217.1145 30171.3331 -289.0601 -217.1145
ENERGY: 300000 1.4624 10.8946 4.5921 0.0000 -10560.1328 1419.7255 0.0000 0.0000 1717.2172 -7406.2410 293.9262 -9123.4582 -7416.6021 300.8947 -224.4075 -153.8752 30469.1756 -375.2879 -312.4238
ENERGY: 600000 2.1119 13.2835 5.2956 0.0000 -10668.6268 1476.1071 0.0000 0.0000 1789.3132 -7382.5155 306.2664 -9171.8287 -7425.2988 301.6002 296.9051 349.0825 30342.8547 -192.9994 -135.9674
ENERGY: 900000 2.4069 14.6325 3.1537 0.0000 -10500.9288 1447.4992 0.0000 0.0000 1790.0823 -7243.1542 306.3981 -9033.2365 -7411.3203 301.2946 834.6298 866.0851 29654.6227 -38.2383 12.7932
ENERGY: 1200000 2.6670 9.4227 3.7673 0.0000 -10564.7073 1368.1442 0.0000 0.0000 1772.1550 -7408.5511 303.3296 -9180.7062 -7414.7892 301.3433 -622.3764 -512.0097 30457.1052 3.4887 56.5893
ENERGY: 1500000 4.0357 8.2789 2.7099 0.0000 -10702.2116 1490.5717 0.0000 0.0000 1752.6154 -7444.0000 299.9851 -9196.6153 -7414.8941 301.6553 303.6799 366.1578 30277.5545 50.3896 100.3049
TCL: Running FEP window  15: Lambda1 0.7000000000000001 Lambda2 0.7500000000000001 [dLambda 0.050000000000000044]
TCL: Setting parameter firsttimestep to 0
TCL: Setting parameter alchLambda to 0.7000000000000001
Info: NONBONDED TABLE R-SQUARED SPACING: 0.0625
Info: NONBONDED TABLE SIZE: 705 POINTS
TCL: Setting parameter alchLambda2 to 0.7500000000000001
Info: NONBONDED TABLE R-SQUARED SPACING: 0.0625
Info: NONBONDED TABLE SIZE: 705 POINTS
TCL: Running for 1500000 steps
ETITLE: TS BOND ANGLE DIHED IMPRP ELECT VDW BOUNDARY MISC KINETIC TOTAL TEMP POTENTIAL TOTALAVG TEMPAVG PRESSURE GPRESSURE VOLUME PRESSAVG GPRESSAVG
ENERGY: 0 4.0357 8.2789 2.7099 0.0000 -10702.3179 1490.2514 0.0000 0.0000 1751.7590 -7445.2830 299.8385 -9197.0420 -7445.2830 299.8385 292.6586 374.3944 30277.5545 292.6586 374.3944
ENERGY: 300000 1.2279 14.4336 6.7401 0.0000 -10471.8757 1365.5025 0.0000 0.0000 1757.8984 -7326.0732 300.8894 -9083.9716 -7392.0929 297.7218 -130.8655 -45.0259 30127.1599 -178.9285 -105.0468
ENERGY: 600000 2.2728 8.8688 4.2243 0.0000 -10569.3438 1426.6751 0.0000 0.0000 1724.9396 -7402.3632 295.2480 -9127.3028 -7391.3675 298.5229 -80.4827 -8.0111 30581.6014 -58.3698 9.1813
ENERGY: 900000 3.8265 15.2946 3.7861 0.0000 -10655.5959 1412.4627 0.0000 0.0000 1754.3286 -7465.8973 300.2783 -9220.2259 -7387.8010 299.2127 -272.1156 -228.0016 30058.1293 53.5754 117.2250
ENERGY: 1200000 1.8964 12.4259 5.5159 0.0000 -10506.5311 1352.6749 0.0000 0.0000 1717.0378 -7416.9802 293.8955 -9134.0180 -7396.6459 298.6556 -540.1144 -511.6291 30682.7945 -21.0685 45.2480
ENERGY: 1500000 0.9213 9.0968 2.3025 0.0000 -10587.8282 1442.0676 0.0000 0.0000 1753.2538 -7380.1862 300.0944 -9133.4400 -7395.8006 298.6503 365.2468 401.9439 30262.6373 102.1066 161.0232
TCL: Running FEP window  16: Lambda1 0.7500000000000001 Lambda2 0.8000000000000002 [dLambda 0.050000000000000044]
TCL: Setting parameter firsttimestep to 0
TCL: Setting parameter alchLambda to 0.7500000000000001
Info: NONBONDED TABLE R-SQUARED SPACING: 0.0625
Info: NONBONDED TABLE SIZE: 705 POINTS
TCL: Setting parameter alchLambda2 to 0.8000000000000002
Info: NONBONDED TABLE R-SQUARED SPACING: 0.0625
Info: NONBONDED TABLE SIZE: 705 POINTS
TCL: Running for 1500000 steps
ETITLE: TS BOND ANGLE DIHED IMPRP ELECT VDW BOUNDARY MISC KINETIC TOTAL TEMP POTENTIAL TOTALAVG TEMPAVG PRESSURE GPRESSURE VOLUME PRESSAVG GPRESSAVG
ENERGY: 0 0.9213 9.0968 2.3025 0.0000 -10587.9692 1441.9591 0.0000 0.0000 1752.4014 -7381.2881 299.9485 -9133.6894 -7381.2881 299.9485 323.0930 414.1872 30262.6373 323.0930 414.1872
ENERGY: 300000 1.4380 8.2363 6.2601 0.0000 -10690.2751 1461.9159 0.0000 0.0000 1694.7164 -7517.7084 290.0749 -9212.4248 -7419.5004 296.3986 11.7398 30.7623 30241.1579 -57.2896 2.6919
ENERGY: 600000 1.8768 8.0655 5.1011 0.0000 -10647.7377 1476.4446 0.0000 0.0000 1674.5455 -7481.7041 286.6223 -9156.2496 -7414.3137 296.0309 236.7392 308.0705 30225.3765 142.5510 206.6953
ENERGY: 900000 2.4516 11.0727 4.0255 0.0000 -10609.3195 1450.2016 0.0000 0.0000 1777.5521 -7364.0161 304.2534 -9141.5682 -7418.3178 298.2468 54.4193 126.8030 30494.2416 147.1695 206.1631
ENERGY: 1200000 2.8238 10.8570 3.3131 0.0000 -10656.7546 1392.6669 0.0000 0.0000 1739.8370 -7507.2569 297.7979 -9247.0938 -7430.3892 298.5579 -944.2333 -861.0484 30420.4290 45.0805 97.7695
ENERGY: 1500000 2.2938 10.4044 5.4194 0.0000 -10687.9156 1503.5568 0.0000 0.0000 1698.7647 -7467.4766 290.7678 -9166.2413 -7428.8230 298.5808 803.2209 883.2121 29809.9059 103.6949 159.7609
TCL: Running FEP window  17: Lambda1 0.8000000000000002 Lambda2 0.8500000000000002 [dLambda 0.050000000000000044]
TCL: Setting parameter firsttimestep to 0
TCL: Setting parameter alchLambda to 0.8000000000000002
Info: NONBONDED TABLE R-SQUARED SPACING: 0.0625
Info: NONBONDED TABLE SIZE: 705 POINTS
TCL: Setting parameter alchLambda2 to 0.8500000000000002
Info: NONBONDED TABLE R-SQUARED SPACING: 0.0625
Info: NONBONDED TABLE SIZE: 705 POINTS
TCL: Running for 1500000 steps
ETITLE: TS BOND ANGLE DIHED IMPRP ELECT VDW BOUNDARY MISC KINETIC TOTAL TEMP POTENTIAL TOTALAVG TEMPAVG PRESSURE GPRESSURE VOLUME PRESSAVG GPRESSAVG
ENERGY: 0 2.2938 10.4044 5.4194 0.0000 -10688.2635 1505.0895 0.0000 0.0000 1697.8827 -7467.1737 290.6168 -9165.0564 -7467.1737 290.6168 829.5541 914.8532 29809.9059 829.5541 914.8532
ENERGY: 300000 2.0822 8.9454 4.2822 0.0000 -10551.3258 1383.6872 0.0000 0.0000 1699.7903 -7452.5385 290.9433 -9152.3287 -7426.6826 297.3439 -304.5846 -256.4134 30431.5236 241.9078 294.8231
ENERGY: 600000 3.5988 7.4239 4.5331 0.0000 -10596.2889 1413.6797 0.0000 0.0000 1750.1267 -7416.9267 299.5591 -9167.0534 -7422.2138 297.8376 -120.2911 -51.4333 30106.5868 129.7761 201.5483
ENERGY: 900000 3.0978 13.5458 6.1200 0.0000 -10712.9236 1429.0677 0.0000 0.0000 1742.9668 -7518.1255 298.3336 -9261.0923 -7433.8607 298.1273 -240.2882 -214.7711 30097.1371 88.6743 156.9732
ENERGY: 1200000 1.6260 12.2517 8.2929 0.0000 -10648.1500 1408.5373 0.0000 0.0000 1770.1198 -7447.3223 302.9812 -9217.4421 -7435.5337 298.7223 -230.4616 -186.7549 30040.8704 85.6659 147.4581
ENERGY: 1500000 1.4724 11.4996 3.8800 0.0000 -10623.1607 1400.6051 0.0000 0.0000 1753.9037 -7451.7999 300.2056 -9205.7036 -7442.3307 297.8548 -298.7754 -258.2080 30304.7386 45.0534 103.9796
TCL: Running FEP window  18: Lambda1 0.8500000000000002 Lambda2 0.9000000000000002 [dLambda 0.050000000000000044]
TCL: Setting parameter firsttimestep to 0
TCL: Setting parameter alchLambda to 0.8500000000000002
Info: NONBONDED TABLE R-SQUARED SPACING: 0.0625
Info: NONBONDED TABLE SIZE: 705 POINTS
TCL: Setting parameter alchLambda2 to 0.9000000000000002
Info: NONBONDED TABLE R-SQUARED SPACING: 0.0625
Info: NONBONDED TABLE SIZE: 705 POINTS
TCL: Running for 1500000 steps
ETITLE: TS BOND ANGLE DIHED IMPRP ELECT VDW BOUNDARY MISC KINETIC TOTAL TEMP POTENTIAL TOTALAVG TEMPAVG PRESSURE GPRESSURE VOLUME PRESSAVG GPRESSAVG
ENERGY: 0 1.4724 11.4996 3.8800 0.0000 -10623.1870 1400.1686 0.0000 0.0000 1753.0292 -7453.1371 300.0559 -9206.1663 -7453.1371 300.0559 -332.7809 -257.8285 30304.7386 -332.7809 -257.8285
ENERGY: 300000 3.6827 9.6468 6.6362 0.0000 -10679.2023 1399.7347 0.0000 0.0000 1797.0129 -7462.4890 307.5844 -9259.5019 -7428.8452 303.4554 -672.3010 -581.3952 30389.0481 -19.8172 58.9727
ENERGY: 600000 2.4757 11.7256 4.8875 0.0000 -10586.7397 1343.9178 0.0000 0.0000 1775.1393 -7448.5937 303.8404 -9223.7330 -7423.4631 303.1065 -798.6144 -769.9340 30393.1990 -185.1469 -125.3270
ENERGY: 900000 2.0766 15.3841 3.7160 0.0000 -10630.4506 1441.2376 0.0000 0.0000 1769.0946 -7398.9417 302.8057 -9168.0363 -7413.3237 302.8252 345.1562 438.9415 29714.5558 -153.8104 -94.6221
ENERGY: 1200000 0.9126 11.6949 2.8700 0.0000 -10660.4707 1460.1317 0.0000 0.0000 1780.8629 -7403.9986 304.8201 -9184.8615 -7412.5799 302.1483 332.0759 365.5483 29972.2968 -11.4174 43.6880
ENERGY: 1500000 1.3301 10.3990 4.0437 0.0000 -10732.1709 1481.6709 0.0000 0.0000 1757.0002 -7477.7269 300.7356 -9234.7271 -7414.8094 301.9272 697.1563 778.2033 29493.0663 6.1879 71.2938
TCL: Running FEP window  19: Lambda1 0.9000000000000002 Lambda2 0.9500000000000003 [dLambda 0.050000000000000044]
TCL: Setting parameter firsttimestep to 0
TCL: Setting parameter alchLambda to 0.9000000000000002
Info: NONBONDED TABLE R-SQUARED SPACING: 0.0625
Info: NONBONDED TABLE SIZE: 705 POINTS
TCL: Setting parameter alchLambda2 to 0.9500000000000003
Info: NONBONDED TABLE R-SQUARED SPACING: 0.0625
Info: NONBONDED TABLE SIZE: 705 POINTS
TCL: Running for 1500000 steps
ETITLE: TS BOND ANGLE DIHED IMPRP ELECT VDW BOUNDARY MISC KINETIC TOTAL TEMP POTENTIAL TOTALAVG TEMPAVG PRESSURE GPRESSURE VOLUME PRESSAVG GPRESSAVG
ENERGY: 0 1.3301 10.3990 4.0437 0.0000 -10732.3109 1483.3328 0.0000 0.0000 1756.1024 -7477.1028 300.5820 -9233.2052 -7477.1028 300.5820 746.1732 820.5782 29493.0663 746.1732 820.5782
ENERGY: 300000 5.8886 8.2202 4.5249 0.0000 -10554.9828 1354.0773 0.0000 0.0000 1754.4910 -7427.7810 300.3061 -9182.2719 -7445.0356 298.7303 -729.1674 -677.0652 30152.2901 -121.6778 -44.0156
ENERGY: 600000 3.9129 8.6044 4.9490 0.0000 -10674.9218 1446.1237 0.0000 0.0000 1801.1715 -7410.1603 308.2962 -9211.3318 -7418.3158 302.0315 -80.6335 -4.0023 30360.0338 -163.7584 -90.1553
ENERGY: 900000 3.2650 9.7969 3.1375 0.0000 -10702.2806 1440.1820 0.0000 0.0000 1765.4478 -7480.4514 302.1815 -9245.8992 -7426.0833 300.7588 112.7261 186.4116 29825.6947 -116.9535 -44.6725
ENERGY: 1200000 4.1001 13.6284 4.7616 0.0000 -10623.0928 1424.7669 0.0000 0.0000 1773.0376 -7402.7982 303.4806 -9175.8358 -7424.6376 300.4039 -83.0807 -17.7990 30348.5693 -115.9533 -40.1229
ENERGY: 1500000 3.7679 8.8183 5.0220 0.0000 -10682.6565 1511.4909 0.0000 0.0000 1772.9343 -7380.6232 303.4630 -9153.5575 -7427.7037 300.2109 790.5467 831.8008 30169.8321 -2.6390 70.0097
TCL: Running FEP window  20: Lambda1 0.9500000000000003 Lambda2 1.0    [dLambda 0.04999999999999971]
TCL: Setting parameter firsttimestep to 0
TCL: Setting parameter alchLambda to 0.9500000000000003
Info: NONBONDED TABLE R-SQUARED SPACING: 0.0625
Info: NONBONDED TABLE SIZE: 705 POINTS
TCL: Setting parameter alchLambda2 to 1.0
Info: NONBONDED TABLE R-SQUARED SPACING: 0.0625
Info: NONBONDED TABLE SIZE: 705 POINTS
TCL: Running for 1500000 steps
ETITLE: TS BOND ANGLE DIHED IMPRP ELECT VDW BOUNDARY MISC KINETIC TOTAL TEMP POTENTIAL TOTALAVG TEMPAVG PRESSURE GPRESSURE VOLUME PRESSAVG GPRESSAVG
ENERGY: 0 3.7679 8.8183 5.0220 0.0000 -10682.8741 1511.0078 0.0000 0.0000 1772.0957 -7382.1624 303.3194 -9154.2581 -7382.1624 303.3194 752.0417 838.1796 30169.8321 752.0417 838.1796
ENERGY: 300000 0.5492 9.1208 3.9510 0.0000 -10622.4526 1409.5624 0.0000 0.0000 1772.1620 -7427.1072 303.3308 -9199.2692 -7437.8367 302.2769 -194.8892 -204.8522 30503.4318 352.6179 413.6606
ENERGY: 600000 1.1942 10.6425 3.0124 0.0000 -10590.5383 1379.6086 0.0000 0.0000 1711.1057 -7484.9749 292.8801 -9196.0806 -7408.3619 302.7877 -559.7894 -509.3351 30304.8319 125.5244 172.5600
ENERGY: 900000 1.6074 11.6707 4.9848 0.0000 -10439.4356 1330.6622 0.0000 0.0000 1744.6087 -7345.9018 298.6146 -9090.5105 -7406.2517 301.1886 -559.4480 -480.5716 30618.4755 -165.6176 -107.2139
ENERGY: 1200000 3.9561 8.5759 4.9278 0.0000 -10699.9437 1504.9209 0.0000 0.0000 1749.0541 -7428.5088 299.3755 -9177.5629 -7400.6912 300.8873 563.4582 613.0633 30084.2504 -58.0606 4.9902
ENERGY: 1500000 4.0938 13.8120 4.1468 0.0000 -10645.2131 1428.8168 0.0000 0.0000 1766.9817 -7427.3621 302.4441 -9194.3438 -7412.4287 300.0701 18.1237 38.4918 30115.7880 -34.9900 26.2477
TCL: Exiting due to exit command.
