Info: SIMULATION PARAMETERS:
Info: TIMESTEP               2
Info: NUMBER OF STEPS        0
Info: STEPS PER CYCLE        10
Info: PERIODIC CELL BASIS 1  29.1827 0 0
Info: PERIODIC CELL BASIS 2  0 35.725 0
Info: PERIODIC CELL BASIS 3  0 0 29.2164
Info: PERIODIC CELL CENTER   0 0 0
Info: WRAPPING WATERS AROUND PERIODIC BOUNDARIES ON OUTPUT.
Info: WRAPPING ALL CLUSTERS AROUND PERIODIC BOUNDARIES ON OUTPUT.
Info: FIRST LDB TIMESTEP     50
Info: LAST LDB TIMESTEP     -1
Info: HOM BACKGROUND SCALING 1
Info: PME BACKGROUND SCALING 1
Info: MIN ATOMS PER PATCH    40
Info: EMPTY PATCH LOAD       40 ATOMS
Info: VELOCITY FILE          mobley_1976156_equil.vel
Info: CENTER OF MASS MOVING INITIALLY? NO
Info: DIELECTRIC             1
Info: EXCLUDE                SCALED ONE-FOUR
Info: 1-4 ELECTROSTATICS SCALED BY 0.833333
Info: MODIFIED 1-4 VDW PARAMETERS WILL BE USED
Info: DCD FILENAME           mobley_1976156_prod.dcd
Info: DCD FREQUENCY          100000
Info: DCD FIRST STEP         100000
Info: DCD FILE WILL CONTAIN UNIT CELL DATA
Info: XST FILENAME           mobley_1976156_prod.xst
Info: XST FREQUENCY          100000
Info: NO VELOCITY DCD OUTPUT
Info: NO FORCE DCD OUTPUT
Info: OUTPUT FILENAME        mobley_1976156_prod
Info: BINARY OUTPUT FILES WILL BE USED
Info: RESTART FILENAME       mobley_1976156_prod.restart
Info: RESTART FREQUENCY      100000
Info: BINARY RESTART FILES WILL BE USED
Info: CUTOFF                 9
Info: PAIRLIST DISTANCE      11
Info: PAIRLIST SHRINK RATE   0.01
Info: PAIRLIST GROW RATE     0.01
Info: PAIRLIST TRIGGER       0.3
Info: PAIRLISTS PER CYCLE    2
Info: PAIRLISTS ENABLED
Info: MARGIN                 2
Info: HYDROGEN GROUP CUTOFF  2.5
Info: PATCH DIMENSION        15.5
Info: ENERGY OUTPUT STEPS    100000
Info: ENERGY EVALUATION STEPS    100000
Info: OUTPUT ENERGY PRECISION 4
Info: CROSSTERM ENERGY INCLUDED IN DIHEDRAL
Info: TIMING OUTPUT STEPS    1000000
Info: PRESSURE OUTPUT STEPS  100000
Info: ALCHEMICAL FEP ON
Info: FEP CURRENT LAMBDA VALUE     0
Info: FEP COMPARISON LAMBDA VALUE  0.05
Info: FEP INTRA-ALCHEMICAL NON-BONDED INTERACTIONS WILL BE RETAINED
Info: FEP INTRA-ALCHEMICAL BONDED INTERACTIONS WILL BE RETAINED
Info: FEP VDW SHIFTING COEFFICIENT 5
Info: FEP ELEC. ACTIVE FOR ANNIHILATED PARTICLES BETWEEN LAMBDA = 0 AND LAMBDA = 0.5
Info: FEP ELEC. ACTIVE FOR EXNIHILATED PARTICLES BETWEEN LAMBDA = 0.5 AND LAMBDA = 1
Info: FEP VDW ACTIVE FOR ANNIHILATED PARTICLES BETWEEN LAMBDA = 0 AND LAMBDA = 1
Info: FEP VDW ACTIVE FOR EXNIHILATED PARTICLES BETWEEN LAMBDA = 0 AND LAMBDA = 1
Info: FEP BOND ACTIVE FOR ANNIHILATED PARTICLES BETWEEN LAMBDA = 1 AND LAMBDA = 1
Info: FEP BOND ACTIVE FOR EXNIHILATED PARTICLES BETWEEN LAMBDA = 0 AND LAMBDA = 0
Info: LANGEVIN DYNAMICS ACTIVE
Info: LANGEVIN TEMPERATURE   300
Info: LANGEVIN USING BBK INTEGRATOR
Info: LANGEVIN DAMPING COEFFICIENT IS 1 INVERSE PS
Info: LANGEVIN DYNAMICS APPLIED TO HYDROGENS
Info: LANGEVIN PISTON PRESSURE CONTROL ACTIVE
Info:        TARGET PRESSURE IS 1.01325 BAR
Info:     OSCILLATION PERIOD IS 50 FS
Info:             DECAY TIME IS 25 FS
Info:     PISTON TEMPERATURE IS 300 K
Info:       PRESSURE CONTROL IS GROUP-BASED
Info:    INITIAL STRAIN RATE IS -0.00029806 -0.00029806 -0.00029806
Info:       CELL FLUCTUATION IS ISOTROPIC
Info: PARTICLE MESH EWALD (PME) ACTIVE
Info: PME TOLERANCE               1e-06
Info: PME EWALD COEFFICIENT       0.348832
Info: PME INTERPOLATION ORDER     4
Info: PME GRID DIMENSIONS         32 36 32
Info: PME MAXIMUM GRID SPACING    1
Info: PME CALCULATION WILL BE PERFORMED ON GPU
Info: FULL ELECTROSTATIC EVALUATION FREQUENCY      2
Info: USING VERLET I (r-RESPA) MTS SCHEME.
Info: C1 SPLITTING OF LONG RANGE ELECTROSTATICS
Info: PLACING ATOMS IN PATCHES BY HYDROGEN GROUPS
Info: RIGID BONDS TO HYDROGEN : ALL
Info:         ERROR TOLERANCE : 1e-08
Info:          MAX ITERATIONS : 100
Info: RIGID WATER USING SETTLE ALGORITHM
Info: RANDOM NUMBER SEED     1744082616
Info: USE HYDROGEN BONDS?    NO
Info: Using AMBER format force field!
Info: AMBER PARM FILE        mobley_1976156.prmtop
Info: COORDINATE PDB         mobley_1976156.pdb
Info: Exclusions will be read from PARM file!
Info: SCNB (VDW SCALING)     2
Info: USING ARITHMETIC MEAN TO COMBINE L-J SIGMA PARAMETERS
Info: BINARY COORDINATES     mobley_1976156_equil.coor
Info: SUMMARY OF PARAMETERS:
Info: 7 BONDS
Info: 8 ANGLES
Info:   8 HARMONIC
Info:   0 COSINE-BASED
Info: 11 DIHEDRAL
Info: 0 IMPROPER
Info: 0 CROSSTERM
Info: 0 VDW
Info: 28 VDW_PAIRS
Info: 0 NBTHOLE_PAIRS
Info: To read alchdata from file: mobley_1976156.pdb
Info: To read alchflag data from column: 5
Info: STRUCTURE SUMMARY:
Info: 2974 ATOMS
Info: 2973 BONDS
Info: 51 ANGLES
Info: 84 DIHEDRALS
Info: 0 IMPROPERS
Info: 0 CROSSTERMS
Info: 3093 EXCLUSIONS
Info: 2964 RIGID BONDS
Info: ALCH: 0 ATOMS TO DISAPPEAR IN FINAL STATE
Info: ALCH: 28 ATOMS TO APPEAR IN FINAL STATE
Info: 5958 DEGREES OF FREEDOM
Info: 992 HYDROGEN GROUPS
Info: 4 ATOMS IN LARGEST HYDROGEN GROUP
Info: 992 MIGRATION GROUPS
Info: 4 ATOMS IN LARGEST MIGRATION GROUP
Info: TOTAL MASS = 17833.9 amu
Info: TOTAL CHARGE = 9.99896e-05 e
Info: MASS DENSITY = 0.972258 g/cm^3
Info: ATOM DENSITY = 0.0976373 atoms/A^3
Info: ADDED 0 IMPLICIT EXCLUSIONS
Info: NONBONDED TABLE R-SQUARED SPACING: 0.0625
Info: NONBONDED TABLE SIZE: 705 POINTS
Info: REMOVING COM VELOCITY 0.30037 -0.0752868 -0.00620826
Info: Use 3D box decompostion in PME FFT.
Info: Updated CUDA force table with 4096 elements.
Info: Updated CUDA LJ table with 7 x 7 elements.
Info: Found 31 unique exclusion lists needing 124 bytes
TCL: Running for 1500000 steps
ETITLE: TS BOND ANGLE DIHED IMPRP ELECT VDW BOUNDARY MISC KINETIC TOTAL TEMP POTENTIAL TOTALAVG TEMPAVG PRESSURE GPRESSURE VOLUME PRESSAVG GPRESSAVG
ENERGY: 0 1.2954 11.3451 6.9682 0.0000 -10717.0774 1426.6733 0.0000 0.0000 1784.2304 -7486.5650 301.3983 -9270.7954 -7486.5650 301.3983 -239.2321 -146.0603 30459.6646 -239.2321 -146.0603
ENERGY: 300000 3.2264 10.4209 6.3968 0.0000 -10616.9764 1392.4093 0.0000 0.0000 1736.1922 -7468.3308 293.2835 -9204.5229 -7473.2551 301.9114 -357.5155 -317.5730 30444.1274 -43.9780 14.4107
ENERGY: 600000 3.0496 11.8334 6.4205 0.0000 -10650.0616 1419.8440 0.0000 0.0000 1772.8285 -7436.0855 299.4723 -9208.9140 -7486.7032 300.9714 -59.1502 -18.6851 30311.9677 -188.2709 -123.4174
ENERGY: 900000 1.6248 8.3265 5.7002 0.0000 -10778.9005 1503.1192 0.0000 0.0000 1799.0254 -7461.1045 303.8975 -9260.1299 -7474.7497 300.7178 241.0753 322.1254 30778.3210 -2.5360 66.2916
ENERGY: 1200000 4.2930 10.1500 4.9203 0.0000 -10730.0977 1439.6517 0.0000 0.0000 1742.6126 -7528.4700 294.3681 -9271.0827 -7485.2941 299.3662 -57.2752 22.6865 30154.4740 20.0001 85.5780
ENERGY: 1500000 3.2331 9.9922 5.0870 0.0000 -10647.3905 1349.5052 0.0000 0.0000 1747.6038 -7531.9692 295.2112 -9279.5730 -7479.8296 299.2528 -1119.9769 -1108.2250 30585.0897 -35.3490 25.2581
TCL: Running FEP window   2: Lambda1 0.05   Lambda2 0.1    [dLambda 0.05  ]
TCL: Setting parameter firsttimestep to 0
TCL: Setting parameter alchLambda to 0.05
Info: NONBONDED TABLE R-SQUARED SPACING: 0.0625
Info: NONBONDED TABLE SIZE: 705 POINTS
TCL: Setting parameter alchLambda2 to 0.1
Info: NONBONDED TABLE R-SQUARED SPACING: 0.0625
Info: NONBONDED TABLE SIZE: 705 POINTS
TCL: Running for 1500000 steps
ETITLE: TS BOND ANGLE DIHED IMPRP ELECT VDW BOUNDARY MISC KINETIC TOTAL TEMP POTENTIAL TOTALAVG TEMPAVG PRESSURE GPRESSURE VOLUME PRESSAVG GPRESSAVG
ENERGY: 0 3.2331 9.9922 5.0870 0.0000 -10647.3904 1356.5696 0.0000 0.0000 1746.7032 -7525.8053 295.0591 -9272.5085 -7525.8053 295.0591 -1175.4464 -1099.4865 30585.0897 -1175.4464 -1099.4865
ENERGY: 300000 5.8452 12.1451 5.6644 0.0000 -10652.7776 1404.2163 0.0000 0.0000 1806.7248 -7418.1817 305.1981 -9224.9065 -7492.0391 301.2076 -305.4318 -267.9534 30653.1443 -354.8878 -293.9658
ENERGY: 600000 4.3504 11.7132 4.9109 0.0000 -10724.1618 1418.1913 0.0000 0.0000 1779.0575 -7505.9386 300.5245 -9284.9961 -7477.9899 300.4054 -249.8037 -225.3589 30319.7744 -12.7690 32.4669
ENERGY: 900000 3.6938 10.6601 6.9243 0.0000 -10709.3832 1459.1248 0.0000 0.0000 1844.9033 -7384.0770 311.6474 -9228.9803 -7468.4302 300.7526 201.0031 269.7139 30487.6276 -23.9252 34.8798
ENERGY: 1200000 1.9384 14.4445 6.1305 0.0000 -10840.9815 1514.3773 0.0000 0.0000 1801.5621 -7502.5288 304.3260 -9304.0909 -7474.3141 300.3949 736.3586 749.2401 29800.1650 99.8128 152.0049
ENERGY: 1500000 3.9423 17.0909 4.8212 0.0000 -10733.2790 1472.7787 0.0000 0.0000 1737.0498 -7497.5961 293.4284 -9234.6459 -7471.4924 299.6493 243.0200 362.5808 29961.2516 114.4795 172.3433
TCL: Running FEP window   3: Lambda1 0.1    Lambda2 0.15000000000000002 [dLambda 0.05000000000000002]
TCL: Setting parameter firsttimestep to 0
TCL: Setting parameter alchLambda to 0.1
Info: NONBONDED TABLE R-SQUARED SPACING: 0.0625
Info: NONBONDED TABLE SIZE: 705 POINTS
TCL: Setting parameter alchLambda2 to 0.15000000000000002
Info: NONBONDED TABLE R-SQUARED SPACING: 0.0625
Info: NONBONDED TABLE SIZE: 705 POINTS
TCL: Running for 1500000 steps
ETITLE: TS BOND ANGLE DIHED IMPRP ELECT VDW BOUNDARY MISC KINETIC TOTAL TEMP POTENTIAL TOTALAVG TEMPAVG PRESSURE GPRESSURE VOLUME PRESSAVG GPRESSAVG
ENERGY: 0 3.9423 17.0909 4.8212 0.0000 -10733.2785 1474.3155 0.0000 0.0000 1736.1664 -7496.9423 293.2792 -9233.1086 -7496.9423 293.2792 269.7650 370.2569 29961.2516 269.7650 370.2569
ENERGY: 300000 7.2159 11.7930 5.5843 0.0000 -10570.2930 1288.3527 0.0000 0.0000 1771.4625 -7485.8846 299.2415 -9257.3471 -7472.8279 298.0714 -1439.7110 -1402.6664 30786.5232 -16.8032 39.8267
ENERGY: 600000 2.8970 11.7373 6.7116 0.0000 -10936.0859 1551.2391 0.0000 0.0000 1801.5800 -7561.9209 304.3291 -9363.5009 -7454.7161 300.2679 431.2234 543.4899 30372.9246 28.7936 89.3012
ENERGY: 900000 4.4883 10.8323 6.6308 0.0000 -10618.1607 1336.7569 0.0000 0.0000 1775.1352 -7484.3173 299.8619 -9259.4524 -7460.2582 300.5620 -1242.1538 -1146.3517 30603.9256 -127.4180 -57.8804
ENERGY: 1200000 1.7292 11.5565 5.4739 0.0000 -10823.7773 1480.4908 0.0000 0.0000 1825.0891 -7499.4378 308.3003 -9324.5269 -7468.7444 300.4820 145.5649 219.7941 30323.1387 -152.7346 -92.7868
ENERGY: 1500000 2.1046 10.8491 4.8061 0.0000 -10766.2901 1455.4407 0.0000 0.0000 1760.8689 -7532.2207 297.4520 -9293.0897 -7468.6691 300.7994 282.6268 344.6582 29896.6966 -77.7249 -16.4430
TCL: Running FEP window   4: Lambda1 0.15000000000000002 Lambda2 0.2    [dLambda 0.04999999999999999]
TCL: Setting parameter firsttimestep to 0
TCL: Setting parameter alchLambda to 0.15000000000000002
Info: NONBONDED TABLE R-SQUARED SPACING: 0.0625
Info: NONBONDED TABLE SIZE: 705 POINTS
TCL: Setting parameter alchLambda2 to 0.2
Info: NONBONDED TABLE R-SQUARED SPACING: 0.0625
Info: NONBONDED TABLE SIZE: 705 POINTS
TCL: Running for 1500000 steps
ETITLE: TS BOND ANGLE DIHED IMPRP ELECT VDW BOUNDARY MISC KINETIC TOTAL TEMP POTENTIAL TOTALAVG TEMPAVG PRESSURE GPRESSURE VOLUME PRESSAVG GPRESSAVG
ENERGY: 0 2.1046 10.8491 4.8061 0.0000 -10766.2892 1455.3501 0.0000 0.0000 1760.0280 -7533.1513 297.3100 -9293.1793 -7533.1513 297.3100 253.4672 348.9509 29896.6966 253.4672 348.9509
ENERGY: 300000 5.0583 14.3235 7.2563 0.0000 -10682.5099 1360.8488 0.0000 0.0000 1766.3827 -7528.6404 298.3834 -9295.0232 -7486.0696 300.2503 -703.6965 -656.8661 30179.0555 -347.7283 -285.4783
ENERGY: 600000 3.9263 12.7891 8.2599 0.0000 -10774.2251 1417.6831 0.0000 0.0000 1775.6880 -7555.8787 299.9553 -9331.5667 -7493.8571 300.0650 -547.4382 -472.5794 30474.1086 -342.3657 -274.8956
ENERGY: 900000 5.5101 11.4545 6.6964 0.0000 -10634.7315 1355.3749 0.0000 0.0000 1706.4403 -7549.2552 288.2578 -9255.6956 -7500.2115 298.9199 -649.5937 -608.6533 30179.3291 -359.1888 -292.7451
ENERGY: 1200000 1.8560 17.6201 8.1185 0.0000 -10709.0398 1470.6420 0.0000 0.0000 1762.6762 -7448.1270 297.7573 -9210.8031 -7484.8065 299.6438 140.5751 258.4742 30484.8227 -240.0580 -173.3698
ENERGY: 1500000 1.9570 11.7081 6.0991 0.0000 -10838.3452 1526.3100 0.0000 0.0000 1780.5550 -7511.7159 300.7775 -9292.2709 -7485.2321 299.9572 733.1853 776.2838 30134.3202 -167.5147 -99.9310
TCL: Running FEP window   5: Lambda1 0.2    Lambda2 0.25   [dLambda 0.04999999999999999]
TCL: Setting parameter firsttimestep to 0
TCL: Setting parameter alchLambda to 0.2
Info: NONBONDED TABLE R-SQUARED SPACING: 0.0625
Info: NONBONDED TABLE SIZE: 705 POINTS
TCL: Setting parameter alchLambda2 to 0.25
Info: NONBONDED TABLE R-SQUARED SPACING: 0.0625
Info: NONBONDED TABLE SIZE: 705 POINTS
TCL: Running for 1500000 steps
ETITLE: TS BOND ANGLE DIHED IMPRP ELECT VDW BOUNDARY MISC KINETIC TOTAL TEMP POTENTIAL TOTALAVG TEMPAVG PRESSURE GPRESSURE VOLUME PRESSAVG GPRESSAVG
ENERGY: 0 1.9570 11.7081 6.0991 0.0000 -10838.3439 1526.4613 0.0000 0.0000 1779.6708 -7512.4476 300.6281 -9292.1184 -7512.4476 300.6281 688.3256 782.2088 30134.3202 688.3256 782.2088
ENERGY: 300000 3.2323 12.3564 4.8222 0.0000 -10797.1874 1517.8461 0.0000 0.0000 1764.1415 -7494.7888 298.0048 -9258.9303 -7453.7775 302.5458 449.6014 517.7840 30666.8924 198.2672 253.0477
ENERGY: 600000 2.9446 15.4424 6.2796 0.0000 -10601.5550 1417.3484 0.0000 0.0000 1790.0865 -7369.4535 302.3876 -9159.5400 -7448.9268 301.3667 21.4228 78.5535 30643.1588 -45.5623 7.9445
ENERGY: 900000 3.9387 11.2923 6.4373 0.0000 -10683.9883 1413.0663 0.0000 0.0000 1740.8195 -7508.4341 294.0652 -9249.2537 -7467.4199 300.8044 -490.7534 -383.3306 30705.7986 -65.4948 -3.8010
ENERGY: 1200000 1.3638 15.2474 4.9104 0.0000 -10654.3349 1428.8473 0.0000 0.0000 1768.6271 -7435.3390 298.7625 -9203.9661 -7467.2448 300.3854 6.5087 76.7187 30294.9103 5.3333 70.3558
ENERGY: 1500000 4.1248 10.6022 5.9163 0.0000 -10712.8680 1420.4095 0.0000 0.0000 1785.9957 -7485.8196 301.6965 -9271.8153 -7470.6893 299.7038 -145.1688 -83.2291 30293.1833 -32.4332 30.8859
TCL: Running FEP window   6: Lambda1 0.25   Lambda2 0.3    [dLambda 0.04999999999999999]
TCL: Setting parameter firsttimestep to 0
TCL: Setting parameter alchLambda to 0.25
Info: NONBONDED TABLE R-SQUARED SPACING: 0.0625
Info: NONBONDED TABLE SIZE: 705 POINTS
TCL: Setting parameter alchLambda2 to 0.3
Info: NONBONDED TABLE R-SQUARED SPACING: 0.0625
Info: NONBONDED TABLE SIZE: 705 POINTS
TCL: Running for 1500000 steps
ETITLE: TS BOND ANGLE DIHED IMPRP ELECT VDW BOUNDARY MISC KINETIC TOTAL TEMP POTENTIAL TOTALAVG TEMPAVG PRESSURE GPRESSURE VOLUME PRESSAVG GPRESSAVG
ENERGY: 0 4.1248 10.6022 5.9163 0.0000 -10712.8687 1420.1891 0.0000 0.0000 1785.1209 -7486.9155 301.5487 -9272.0364 -7486.9155 301.5487 -155.6455 -75.6779 30293.1833 -155.6455 -75.6779
ENERGY: 300000 3.8032 10.8816 4.8534 0.0000 -10778.6641 1449.7977 0.0000 0.0000 1798.3569 -7510.9714 303.7846 -9309.3283 -7486.6558 302.1032 217.3130 279.4461 30010.6466 138.1525 214.0389
ENERGY: 600000 3.3464 15.6063 8.0212 0.0000 -10711.7054 1451.7505 0.0000 0.0000 1762.8211 -7470.1600 297.7818 -9232.9810 -7482.3766 299.9540 465.8441 487.8903 29785.1678 309.0645 362.0795
ENERGY: 900000 2.1520 10.0507 5.6340 0.0000 -10791.6218 1463.2760 0.0000 0.0000 1790.4630 -7520.0460 302.4512 -9310.5091 -7475.3436 301.5093 -190.9872 -62.4319 30578.4351 287.2633 340.9827
ENERGY: 1200000 2.1503 13.0311 5.6980 0.0000 -10666.1644 1420.1958 0.0000 0.0000 1722.0775 -7503.0116 290.8992 -9225.0891 -7470.8640 301.4607 -172.5356 -96.2538 30232.8964 225.8684 279.0163
ENERGY: 1500000 2.2718 13.5318 6.1676 0.0000 -10758.3081 1526.0042 0.0000 0.0000 1796.3822 -7413.9505 303.4510 -9210.3327 -7474.2379 301.0928 880.8336 919.9266 30216.6333 209.7477 260.6290
TCL: Running FEP window   7: Lambda1 0.3    Lambda2 0.35   [dLambda 0.04999999999999999]
TCL: Setting parameter firsttimestep to 0
TCL: Setting parameter alchLambda to 0.3
Info: NONBONDED TABLE R-SQUARED SPACING: 0.0625
Info: NONBONDED TABLE SIZE: 705 POINTS
TCL: Setting parameter alchLambda2 to 0.35
Info: NONBONDED TABLE R-SQUARED SPACING: 0.0625
Info: NONBONDED TABLE SIZE: 705 POINTS
TCL: Running for 1500000 steps
ETITLE: TS BOND ANGLE DIHED IMPRP ELECT VDW BOUNDARY MISC KINETIC TOTAL TEMP POTENTIAL TOTALAVG TEMPAVG PRESSURE GPRESSURE VOLUME PRESSAVG GPRESSAVG
ENERGY: 0 2.2718 13.5318 6.1676 0.0000 -10758.3093 1526.1006 0.0000 0.0000 1795.4643 -7414.7732 303.2960 -9210.2375 -7414.7732 303.2960 841.1756 927.1732 30216.6333 841.1756 927.1732
ENERGY: 300000 3.7744 13.1363 6.2577 0.0000 -10732.6997 1427.1124 0.0000 0.0000 1747.9173 -7534.5015 295.2642 -9282.4188 -7454.4971 299.3683 -178.2496 -143.6525 30403.4588 217.6447 283.9695
ENERGY: 600000 3.0383 12.3461 6.7455 0.0000 -10605.0320 1390.3075 0.0000 0.0000 1780.2189 -7412.3757 300.7207 -9192.5946 -7463.0421 300.3779 -269.6722 -161.4929 30386.9823 -65.7067 5.1924
ENERGY: 900000 2.3255 11.7372 5.7592 0.0000 -10685.1693 1472.1569 0.0000 0.0000 1746.0734 -7447.1170 294.9527 -9193.1905 -7471.4045 300.9836 91.7443 177.3290 30838.0707 -113.3858 -36.4374
ENERGY: 1200000 4.2932 15.3084 5.3654 0.0000 -10639.0249 1370.0524 0.0000 0.0000 1779.6642 -7464.3413 300.6270 -9244.0055 -7476.2116 300.6718 -697.9868 -619.9730 30549.2944 -141.3242 -69.8564
ENERGY: 1500000 5.0715 17.4834 6.3961 0.0000 -10567.6465 1380.6646 0.0000 0.0000 1820.1451 -7337.8859 307.4651 -9158.0310 -7466.6290 300.7850 -239.0495 -188.9081 30558.3739 -143.5987 -75.1407
TCL: Running FEP window   8: Lambda1 0.35   Lambda2 0.39999999999999997 [dLambda 0.04999999999999999]
TCL: Setting parameter firsttimestep to 0
TCL: Setting parameter alchLambda to 0.35
Info: NONBONDED TABLE R-SQUARED SPACING: 0.0625
Info: NONBONDED TABLE SIZE: 705 POINTS
TCL: Setting parameter alchLambda2 to 0.39999999999999997
Info: NONBONDED TABLE R-SQUARED SPACING: 0.0625
Info: NONBONDED TABLE SIZE: 705 POINTS
TCL: Running for 1500000 steps
ETITLE: TS BOND ANGLE DIHED IMPRP ELECT VDW BOUNDARY MISC KINETIC TOTAL TEMP POTENTIAL TOTALAVG TEMPAVG PRESSURE GPRESSURE VOLUME PRESSAVG GPRESSAVG
ENERGY: 0 5.0715 17.4834 6.3961 0.0000 -10567.6445 1380.7055 0.0000 0.0000 1819.2873 -7338.7007 307.3202 -9157.9880 -7338.7007 307.3202 -267.9970 -179.8774 30558.3739 -267.9970 -179.8774
ENERGY: 300000 1.2222 8.9630 6.3923 0.0000 -10645.7796 1391.1122 0.0000 0.0000 1814.0595 -7424.0302 306.4371 -9238.0897 -7436.8519 301.1514 -273.3257 -226.7740 30586.4421 -184.5357 -98.6598
ENERGY: 600000 0.7867 8.6331 6.0636 0.0000 -10631.3202 1366.8726 0.0000 0.0000 1797.6835 -7451.2807 303.6709 -9248.9642 -7443.9530 300.5360 -247.3498 -209.0919 30054.4093 -298.7012 -216.0980
ENERGY: 900000 3.4869 12.9328 5.6663 0.0000 -10759.9052 1478.8526 0.0000 0.0000 1777.6086 -7481.3580 300.2797 -9258.9667 -7449.1220 300.8709 -31.2750 32.2288 30816.0992 -284.0729 -207.4408
ENERGY: 1200000 2.6161 18.4468 4.9145 0.0000 -10776.8399 1506.9209 0.0000 0.0000 1774.9224 -7469.0192 299.8260 -9243.9415 -7451.1829 300.2073 273.1877 345.1238 30720.9637 -262.9405 -191.6629
ENERGY: 1500000 3.6974 12.3195 4.8191 0.0000 -10564.4213 1323.0749 0.0000 0.0000 1787.5433 -7432.9672 301.9579 -9220.5105 -7448.6635 300.4760 -857.5279 -832.8395 30643.8901 -182.0452 -110.3987
TCL: Running FEP window   9: Lambda1 0.39999999999999997 Lambda2 0.44999999999999996 [dLambda 0.04999999999999999]
TCL: Setting parameter firsttimestep to 0
TCL: Setting parameter alchLambda to 0.39999999999999997
Info: NONBONDED TABLE R-SQUARED SPACING: 0.0625
Info: NONBONDED TABLE SIZE: 705 POINTS
TCL: Setting parameter alchLambda2 to 0.44999999999999996
Info: NONBONDED TABLE R-SQUARED SPACING: 0.0625
Info: NONBONDED TABLE SIZE: 705 POINTS
TCL: Running for 1500000 steps
ETITLE: TS BOND ANGLE DIHED IMPRP ELECT VDW BOUNDARY MISC KINETIC TOTAL TEMP POTENTIAL TOTALAVG TEMPAVG PRESSURE GPRESSURE VOLUME PRESSAVG GPRESSAVG
ENERGY: 0 3.6974 12.3195 4.8191 0.0000 -10564.4215 1323.0904 0.0000 0.0000 1786.6411 -7433.8540 301.8055 -9220.4951 -7433.8540 301.8055 -886.7230 -824.4024 30643.8901 -886.7230 -824.4024
ENERGY: 300000 2.5365 14.1960 4.9878 0.0000 -10704.8947 1409.6519 0.0000 0.0000 1689.0789 -7584.4435 285.3250 -9273.5225 -7499.8856 295.4723 -325.9317 -287.0399 30242.5893 -84.1040 -24.1879
ENERGY: 600000 2.7563 11.9118 5.3434 0.0000 -10706.2673 1382.8089 0.0000 0.0000 1723.1646 -7580.2824 291.0829 -9303.4470 -7503.9251 294.4255 -565.5404 -522.9563 30566.1136 -316.4132 -250.6201
ENERGY: 900000 2.8981 15.6582 6.3449 0.0000 -10687.2793 1454.3774 0.0000 0.0000 1763.1084 -7444.8924 297.8303 -9208.0008 -7492.1472 296.6142 -86.8757 -43.8668 30851.5615 -280.6549 -214.1548
ENERGY: 1200000 4.3309 15.9880 5.2195 0.0000 -10707.8529 1478.4749 0.0000 0.0000 1795.5585 -7408.2810 303.3119 -9203.8395 -7495.9972 297.0584 418.6503 530.4820 30359.7787 -187.6876 -121.7362
ENERGY: 1500000 1.8362 13.7758 6.9932 0.0000 -10678.6537 1451.1783 0.0000 0.0000 1805.3139 -7399.5563 304.9598 -9204.8702 -7489.4375 297.9540 541.6560 644.0182 29884.9220 -137.8107 -67.2557
TCL: Running FEP window  10: Lambda1 0.44999999999999996 Lambda2 0.49999999999999994 [dLambda 0.04999999999999999]
TCL: Setting parameter firsttimestep to 0
TCL: Setting parameter alchLambda to 0.44999999999999996
Info: NONBONDED TABLE R-SQUARED SPACING: 0.0625
Info: NONBONDED TABLE SIZE: 705 POINTS
TCL: Setting parameter alchLambda2 to 0.49999999999999994
Info: NONBONDED TABLE R-SQUARED SPACING: 0.0625
Info: NONBONDED TABLE SIZE: 705 POINTS
TCL: Running for 1500000 steps
ETITLE: TS BOND ANGLE DIHED IMPRP ELECT VDW BOUNDARY MISC KINETIC TOTAL TEMP POTENTIAL TOTALAVG TEMPAVG PRESSURE GPRESSURE VOLUME PRESSAVG GPRESSAVG
ENERGY: 0 1.8362 13.7758 6.9932 0.0000 -10678.6540 1452.0596 0.0000 0.0000 1804.4378 -7399.5515 304.8118 -9203.9893 -7399.5515 304.8118 575.4037 656.7261 29884.9220 575.4037 656.7261
ENERGY: 300000 2.4235 19.3609 5.9792 0.0000 -10696.0816 1460.6980 0.0000 0.0000 1818.1727 -7389.4474 307.1320 -9207.6201 -7431.4806 302.7566 -11.8744 72.9133 30927.4600 5.3040 80.8535
ENERGY: 600000 2.7652 9.4554 5.8239 0.0000 -10766.5598 1470.7915 0.0000 0.0000 1765.4086 -7512.3153 298.2189 -9277.7239 -7474.1733 300.2262 26.1778 48.2641 30804.7242 -150.5351 -86.2572
ENERGY: 900000 4.8612 16.6869 5.2121 0.0000 -10770.7024 1522.2511 0.0000 0.0000 1742.2838 -7479.4073 294.3125 -9221.6911 -7469.9938 299.7008 796.5768 854.1874 30468.3893 -83.5890 -20.4175
ENERGY: 1200000 2.5429 9.8238 5.8459 0.0000 -10838.3458 1540.5024 0.0000 0.0000 1757.6080 -7522.0226 296.9012 -9279.6306 -7472.9543 299.5505 709.0126 733.9160 30487.6536 32.4176 89.5432
ENERGY: 1500000 4.3809 12.2863 6.0678 0.0000 -10714.8259 1447.0195 0.0000 0.0000 1777.3588 -7467.7127 300.2375 -9245.0714 -7468.9227 300.4795 -68.0804 -88.5226 30838.4009 -25.0136 34.0666
TCL: Running FEP window  11: Lambda1 0.49999999999999994 Lambda2 0.5499999999999999 [dLambda 0.04999999999999999]
TCL: Setting parameter firsttimestep to 0
TCL: Setting parameter alchLambda to 0.49999999999999994
Info: NONBONDED TABLE R-SQUARED SPACING: 0.0625
Info: NONBONDED TABLE SIZE: 705 POINTS
TCL: Setting parameter alchLambda2 to 0.5499999999999999
Info: NONBONDED TABLE R-SQUARED SPACING: 0.0625
Info: NONBONDED TABLE SIZE: 705 POINTS
TCL: Running for 1500000 steps
ETITLE: TS BOND ANGLE DIHED IMPRP ELECT VDW BOUNDARY MISC KINETIC TOTAL TEMP POTENTIAL TOTALAVG TEMPAVG PRESSURE GPRESSURE VOLUME PRESSAVG GPRESSAVG
ENERGY: 0 4.3809 12.2863 6.0678 0.0000 -10714.8273 1447.4668 0.0000 0.0000 1776.4360 -7468.1896 300.0817 -9244.6256 -7468.1896 300.0817 -157.7240 -77.3537 30838.4009 -157.7240 -77.3537
ENERGY: 300000 1.5589 16.5572 6.5376 0.0000 -10879.0472 1567.5894 0.0000 0.0000 1763.8337 -7522.9705 297.9528 -9286.8041 -7471.4897 302.2877 816.0616 863.2776 30485.8494 99.7360 147.1862
ENERGY: 600000 3.1617 12.8117 8.6570 0.0000 -10563.7792 1345.3804 0.0000 0.0000 1770.2674 -7423.5009 299.0396 -9193.7683 -7463.4270 301.6874 -821.1328 -694.2088 31130.8558 -43.0113 20.1559
ENERGY: 900000 2.8916 6.8774 6.2950 0.0000 -10594.0122 1319.6533 0.0000 0.0000 1764.4009 -7493.8939 298.0487 -9258.2949 -7463.8566 301.5145 -1198.7011 -1059.3960 30879.0451 -133.7252 -56.7060
ENERGY: 1200000 2.3135 14.0805 5.2698 0.0000 -10788.4895 1436.4947 0.0000 0.0000 1814.0739 -7516.2571 306.4396 -9330.3310 -7475.1397 302.1190 -279.8354 -268.4458 30699.3434 -184.7735 -109.2888
ENERGY: 1500000 4.1436 11.4758 5.6661 0.0000 -10776.1918 1472.0414 0.0000 0.0000 1792.3069 -7490.5580 302.7626 -9282.8649 -7468.1308 301.9202 14.2710 103.8365 30896.9328 -139.2314 -66.9685
TCL: Running FEP window  12: Lambda1 0.5499999999999999 Lambda2 0.6    [dLambda 0.050000000000000044]
TCL: Setting parameter firsttimestep to 0
TCL: Setting parameter alchLambda to 0.5499999999999999
Info: NONBONDED TABLE R-SQUARED SPACING: 0.0625
Info: NONBONDED TABLE SIZE: 705 POINTS
TCL: Setting parameter alchLambda2 to 0.6
Info: NONBONDED TABLE R-SQUARED SPACING: 0.0625
Info: NONBONDED TABLE SIZE: 705 POINTS
TCL: Running for 1500000 steps
ETITLE: TS BOND ANGLE DIHED IMPRP ELECT VDW BOUNDARY MISC KINETIC TOTAL TEMP POTENTIAL TOTALAVG TEMPAVG PRESSURE GPRESSURE VOLUME PRESSAVG GPRESSAVG
ENERGY: 0 4.1436 11.4758 5.6661 0.0000 -10776.3078 1471.2987 0.0000 0.0000 1791.4624 -7492.2612 302.6200 -9283.7236 -7492.2612 302.6200 14.5780 104.8743 30896.9328 14.5780 104.8743
ENERGY: 300000 1.2988 13.3995 7.3767 0.0000 -10830.0246 1456.1780 0.0000 0.0000 1774.7485 -7577.0231 299.7966 -9351.7716 -7517.8349 301.5957 -153.7413 -96.9058 30512.2685 3.9893 78.3445
ENERGY: 600000 2.3739 10.5801 4.4251 0.0000 -10825.0710 1515.4951 0.0000 0.0000 1761.9959 -7530.2010 297.6424 -9292.1969 -7495.3422 300.8448 450.3540 471.9395 30360.0231 -86.6450 -14.2015
ENERGY: 900000 3.8396 10.6869 7.4148 0.0000 -10777.3055 1510.5189 0.0000 0.0000 1815.6627 -7429.1827 306.7080 -9244.8453 -7491.1891 300.4009 439.5006 544.2539 30621.8178 -59.3169 6.1762
ENERGY: 1200000 2.3934 9.6549 8.1603 0.0000 -10751.7979 1426.2960 0.0000 0.0000 1820.3453 -7484.9480 307.4990 -9305.2933 -7503.1201 299.9034 -101.9827 -21.8521 30209.3012 -33.2699 27.7300
ENERGY: 1500000 5.7793 11.9131 7.5452 0.0000 -10792.5811 1467.3548 0.0000 0.0000 1811.2126 -7488.7761 305.9562 -9299.9888 -7498.7136 300.4832 -160.1859 -100.6558 30599.9207 -95.6615 -31.8697
TCL: Running FEP window  13: Lambda1 0.6    Lambda2 0.65   [dLambda 0.050000000000000044]
TCL: Setting parameter firsttimestep to 0
TCL: Setting parameter alchLambda to 0.6
Info: NONBONDED TABLE R-SQUARED SPACING: 0.0625
Info: NONBONDED TABLE SIZE: 705 POINTS
TCL: Setting parameter alchLambda2 to 0.65
Info: NONBONDED TABLE R-SQUARED SPACING: 0.0625
Info: NONBONDED TABLE SIZE: 705 POINTS
TCL: Running for 1500000 steps
ETITLE: TS BOND ANGLE DIHED IMPRP ELECT VDW BOUNDARY MISC KINETIC TOTAL TEMP POTENTIAL TOTALAVG TEMPAVG PRESSURE GPRESSURE VOLUME PRESSAVG GPRESSAVG
ENERGY: 0 5.7793 11.9131 7.5452 0.0000 -10792.8495 1466.9947 0.0000 0.0000 1810.3604 -7490.2568 305.8123 -9300.6172 -7490.2568 305.8123 -182.6587 -96.8161 30599.9207 -182.6587 -96.8161
ENERGY: 300000 3.7371 14.3636 5.6686 0.0000 -10736.6451 1423.8186 0.0000 0.0000 1756.5764 -7532.4808 296.7269 -9289.0572 -7504.9749 300.7204 102.3445 155.1007 30135.7799 -86.8052 -36.0641
ENERGY: 600000 4.3391 12.4117 6.0250 0.0000 -10839.5382 1522.8130 0.0000 0.0000 1842.6239 -7451.3256 311.2623 -9293.9495 -7498.7440 302.4061 336.5421 458.5505 30693.7698 -82.7605 -37.9143
ENERGY: 900000 3.6845 12.5291 4.5251 0.0000 -10736.6778 1458.4263 0.0000 0.0000 1819.8315 -7437.6814 307.4122 -9257.5129 -7479.8280 302.7750 238.8329 339.3508 30317.6044 -107.0166 -57.3166
ENERGY: 1200000 2.0127 9.2453 4.3227 0.0000 -10543.9836 1411.1765 0.0000 0.0000 1813.7823 -7303.4441 306.3903 -9117.2264 -7462.1901 302.2055 -23.8132 98.3534 31061.6185 -148.6695 -96.4789
ENERGY: 1500000 2.9543 8.4741 7.9322 0.0000 -10559.4250 1350.9960 0.0000 0.0000 1761.5340 -7427.5345 297.5644 -9189.0685 -7457.3915 302.1830 -341.7613 -269.1029 30739.2764 -110.7711 -58.1118
TCL: Running FEP window  14: Lambda1 0.65   Lambda2 0.7000000000000001 [dLambda 0.050000000000000044]
TCL: Setting parameter firsttimestep to 0
TCL: Setting parameter alchLambda to 0.65
Info: NONBONDED TABLE R-SQUARED SPACING: 0.0625
Info: NONBONDED TABLE SIZE: 705 POINTS
TCL: Setting parameter alchLambda2 to 0.7000000000000001
Info: NONBONDED TABLE R-SQUARED SPACING: 0.0625
Info: NONBONDED TABLE SIZE: 705 POINTS
TCL: Running for 1500000 steps
ETITLE: TS BOND ANGLE DIHED IMPRP ELECT VDW BOUNDARY MISC KINETIC TOTAL TEMP POTENTIAL TOTALAVG TEMPAVG PRESSURE GPRESSURE VOLUME PRESSAVG GPRESSAVG
ENERGY: 0 2.9543 8.4741 7.9322 0.0000 -10559.3148 1351.1425 0.0000 0.0000 1760.6537 -7428.1580 297.4157 -9188.8117 -7428.1580 297.4157 -337.2554 -254.7261 30739.2764 -337.2554 -254.7261
ENERGY: 300000 2.0351 18.1166 5.1059 0.0000 -10750.3896 1488.9299 0.0000 0.0000 1808.2599 -7427.9421 305.4575 -9236.2021 -7444.1030 299.0104 31.7759 34.0693 31308.7664 18.3953 78.8030
ENERGY: 600000 1.2433 15.1983 8.6672 0.0000 -10809.6632 1480.1420 0.0000 0.0000 1738.6822 -7565.7303 293.7042 -9304.4124 -7476.0992 297.0161 232.6908 302.2222 30267.3514 -17.5900 56.1565
ENERGY: 900000 2.1075 14.6924 6.2261 0.0000 -10727.1938 1477.8009 0.0000 0.0000 1789.4947 -7436.8723 302.2876 -9226.3669 -7462.3464 297.0360 419.5514 496.1108 30872.8944 62.2789 129.1388
ENERGY: 1200000 2.0148 14.3917 5.1433 0.0000 -10717.9401 1404.4609 0.0000 0.0000 1778.0867 -7513.8427 300.3605 -9291.9294 -7456.9138 298.1930 -71.9728 9.3596 30286.4137 -16.1794 47.6283
ENERGY: 1500000 3.8508 9.0007 4.3014 0.0000 -10677.4636 1423.2436 0.0000 0.0000 1796.1528 -7440.9142 303.4123 -9237.0670 -7457.5199 298.4442 69.6029 120.8867 30572.8830 35.3732 98.2958
TCL: Running FEP window  15: Lambda1 0.7000000000000001 Lambda2 0.7500000000000001 [dLambda 0.050000000000000044]
TCL: Setting parameter firsttimestep to 0
TCL: Setting parameter alchLambda to 0.7000000000000001
Info: NONBONDED TABLE R-SQUARED SPACING: 0.0625
Info: NONBONDED TABLE SIZE: 705 POINTS
TCL: Setting parameter alchLambda2 to 0.7500000000000001
Info: NONBONDED TABLE R-SQUARED SPACING: 0.0625
Info: NONBONDED TABLE SIZE: 705 POINTS
TCL: Running for 1500000 steps
ETITLE: TS BOND ANGLE DIHED IMPRP ELECT VDW BOUNDARY MISC KINETIC TOTAL TEMP POTENTIAL TOTALAVG TEMPAVG PRESSURE GPRESSURE VOLUME PRESSAVG GPRESSAVG
ENERGY: 0 3.8508 9.0007 4.3014 0.0000 -10678.3595 1423.6582 0.0000 0.0000 1795.2795 -7442.2688 303.2648 -9237.5483 -7442.2688 303.2648 39.6240 137.7452 30572.8830 39.6240 137.7452
ENERGY: 300000 2.8379 12.9612 5.8343 0.0000 -10752.7644 1457.3674 0.0000 0.0000 1764.2811 -7509.4824 298.0284 -9273.7635 -7485.3389 302.2438 115.3043 142.8541 30732.9234 447.2506 527.6496
ENERGY: 600000 2.9624 6.3644 4.8297 0.0000 -10728.9854 1436.8687 0.0000 0.0000 1738.3162 -7539.6441 293.6423 -9277.9603 -7484.2264 299.6615 44.5473 174.5745 30073.1697 77.9044 169.3108
ENERGY: 900000 4.6005 15.5238 6.1623 0.0000 -10573.2735 1349.5762 0.0000 0.0000 1758.9894 -7438.4213 297.1345 -9197.4107 -7490.0717 297.8592 -702.3469 -629.6319 30727.9329 -97.8254 -7.7475
ENERGY: 1200000 2.8427 12.0729 5.7685 0.0000 -10728.7502 1406.9571 0.0000 0.0000 1788.3228 -7512.7862 302.0896 -9301.1091 -7484.6242 298.6411 -607.1472 -513.2750 30962.6053 -83.1725 6.3198
ENERGY: 1500000 1.3344 10.4696 4.6696 0.0000 -10712.0943 1425.3828 0.0000 0.0000 1763.3802 -7506.8576 297.8762 -9270.2378 -7487.1938 298.4442 -352.3028 -282.9908 31116.2498 -79.0365 2.3864
TCL: Running FEP window  16: Lambda1 0.7500000000000001 Lambda2 0.8000000000000002 [dLambda 0.050000000000000044]
TCL: Setting parameter firsttimestep to 0
TCL: Setting parameter alchLambda to 0.7500000000000001
Info: NONBONDED TABLE R-SQUARED SPACING: 0.0625
Info: NONBONDED TABLE SIZE: 705 POINTS
TCL: Setting parameter alchLambda2 to 0.8000000000000002
Info: NONBONDED TABLE R-SQUARED SPACING: 0.0625
Info: NONBONDED TABLE SIZE: 705 POINTS
TCL: Running for 1500000 steps
ETITLE: TS BOND ANGLE DIHED IMPRP ELECT VDW BOUNDARY MISC KINETIC TOTAL TEMP POTENTIAL TOTALAVG TEMPAVG PRESSURE GPRESSURE VOLUME PRESSAVG GPRESSAVG
ENERGY: 0 1.3344 10.4696 4.6696 0.0000 -10712.9366 1426.2051 0.0000 0.0000 1762.5150 -7507.7429 297.7301 -9270.2579 -7507.7429 297.7301 -342.8710 -263.4497 31116.2498 -342.8710 -263.4497
ENERGY: 300000 1.4275 13.4149 8.9262 0.0000 -10688.9050 1404.3041 0.0000 0.0000 1791.4187 -7469.4136 302.6126 -9260.8323 -7492.2557 301.5000 -336.5198 -243.6498 30499.7639 -159.5200 -72.7742
ENERGY: 600000 2.8229 13.3590 6.3888 0.0000 -10685.7001 1404.0239 0.0000 0.0000 1804.4525 -7454.6531 304.8143 -9259.1056 -7503.8042 299.9942 -421.7116 -298.7982 30721.8168 -229.3423 -135.3082
ENERGY: 900000 2.7491 11.4051 6.9920 0.0000 -10723.2785 1448.0412 0.0000 0.0000 1792.5660 -7461.5250 302.8064 -9254.0911 -7501.4683 299.9571 147.4720 237.2304 30473.8146 -173.7081 -91.0292
ENERGY: 1200000 2.8281 7.2638 7.2801 0.0000 -10749.1714 1413.5420 0.0000 0.0000 1726.3039 -7591.9535 291.6132 -9318.2574 -7504.6746 299.0193 -386.8009 -330.8221 30630.1827 -198.5175 -118.8851
ENERGY: 1500000 3.6308 19.6022 4.7697 0.0000 -10627.6049 1358.3761 0.0000 0.0000 1779.4237 -7461.8024 300.5864 -9241.2261 -7501.3701 298.6736 -752.7758 -685.2911 31108.3158 -229.4141 -156.5647
TCL: Running FEP window  17: Lambda1 0.8000000000000002 Lambda2 0.8500000000000002 [dLambda 0.050000000000000044]
TCL: Setting parameter firsttimestep to 0
TCL: Setting parameter alchLambda to 0.8000000000000002
Info: NONBONDED TABLE R-SQUARED SPACING: 0.0625
Info: NONBONDED TABLE SIZE: 705 POINTS
TCL: Setting parameter alchLambda2 to 0.8500000000000002
Info: NONBONDED TABLE R-SQUARED SPACING: 0.0625
Info: NONBONDED TABLE SIZE: 705 POINTS
TCL: Running for 1500000 steps
ETITLE: TS BOND ANGLE DIHED IMPRP ELECT VDW BOUNDARY MISC KINETIC TOTAL TEMP POTENTIAL TOTALAVG TEMPAVG PRESSURE GPRESSURE VOLUME PRESSAVG GPRESSAVG
ENERGY: 0 3.6308 19.6022 4.7697 0.0000 -10628.0955 1358.1732 0.0000 0.0000 1778.5075 -7463.4122 300.4316 -9241.9197 -7463.4122 300.4316 -759.1779 -676.6569 31108.3158 -759.1779 -676.6569
ENERGY: 300000 1.4346 12.5714 4.1094 0.0000 -10801.8861 1479.6268 0.0000 0.0000 1696.3513 -7607.7926 286.5535 -9304.1439 -7526.7416 297.2932 328.9898 402.6498 30174.3389 -116.5804 -37.4832
ENERGY: 600000 2.3099 15.6234 8.0340 0.0000 -10725.6188 1389.8118 0.0000 0.0000 1786.4904 -7523.3492 301.7801 -9309.8397 -7513.0361 297.9546 -483.4243 -396.7574 30279.8276 -45.2122 30.0590
ENERGY: 900000 2.5030 10.6699 5.6195 0.0000 -10720.0231 1414.3723 0.0000 0.0000 1786.3857 -7500.4727 301.7624 -9286.8584 -7511.8079 299.0934 -31.6704 31.9521 30391.7434 4.3061 67.4157
ENERGY: 1200000 3.2168 7.3682 6.3676 0.0000 -10771.5220 1458.0352 0.0000 0.0000 1757.8895 -7538.6447 296.9487 -9296.5342 -7511.7630 299.0042 292.9876 399.9605 30029.8899 32.5090 102.5900
ENERGY: 1500000 3.1650 6.6659 6.3895 0.0000 -10736.7786 1435.7671 0.0000 0.0000 1753.2349 -7531.5563 296.1624 -9284.7911 -7511.6791 299.6436 95.9884 153.4296 30448.4229 0.8726 70.5820
TCL: Running FEP window  18: Lambda1 0.8500000000000002 Lambda2 0.9000000000000002 [dLambda 0.050000000000000044]
TCL: Setting parameter firsttimestep to 0
TCL: Setting parameter alchLambda to 0.8500000000000002
Info: NONBONDED TABLE R-SQUARED SPACING: 0.0625
Info: NONBONDED TABLE SIZE: 705 POINTS
TCL: Setting parameter alchLambda2 to 0.9000000000000002
Info: NONBONDED TABLE R-SQUARED SPACING: 0.0625
Info: NONBONDED TABLE SIZE: 705 POINTS
TCL: Running for 1500000 steps
ETITLE: TS BOND ANGLE DIHED IMPRP ELECT VDW BOUNDARY MISC KINETIC TOTAL TEMP POTENTIAL TOTALAVG TEMPAVG PRESSURE GPRESSURE VOLUME PRESSAVG GPRESSAVG
ENERGY: 0 3.1650 6.6659 6.3895 0.0000 -10738.2326 1436.3137 0.0000 0.0000 1752.3788 -7533.3196 296.0178 -9285.6985 -7533.3196 296.0178 78.1231 172.9338 30448.4229 78.1231 172.9338
ENERGY: 300000 4.5506 10.7789 6.4754 0.0000 -10736.0119 1450.4972 0.0000 0.0000 1795.5534 -7468.1564 303.3110 -9263.7098 -7512.4089 298.6456 203.6910 236.5393 30565.5103 132.1447 185.6292
ENERGY: 600000 4.2088 11.4637 5.5936 0.0000 -10609.5751 1384.5758 0.0000 0.0000 1804.7358 -7398.9974 304.8622 -9203.7332 -7491.3155 299.4905 -149.9107 -75.6232 30677.7182 -42.1757 12.5242
ENERGY: 900000 5.0050 12.9577 5.7213 0.0000 -10790.3180 1497.7972 0.0000 0.0000 1768.7967 -7500.0401 298.7912 -9268.8368 -7495.8030 298.4877 215.7673 332.1352 30691.1399 -73.3597 -14.2859
ENERGY: 1200000 3.4283 11.3000 8.9994 0.0000 -10823.4143 1493.6230 0.0000 0.0000 1803.2349 -7502.8287 304.6086 -9306.0636 -7498.8250 299.4668 388.2048 379.7771 30509.7301 4.6223 67.9295
ENERGY: 1500000 3.9186 9.5555 3.9528 0.0000 -10649.5870 1426.3336 0.0000 0.0000 1712.7308 -7493.0957 289.3204 -9205.8265 -7497.5727 298.0620 155.4886 286.4050 30151.0307 56.2309 127.2847
TCL: Running FEP window  19: Lambda1 0.9000000000000002 Lambda2 0.9500000000000003 [dLambda 0.050000000000000044]
TCL: Setting parameter firsttimestep to 0
TCL: Setting parameter alchLambda to 0.9000000000000002
Info: NONBONDED TABLE R-SQUARED SPACING: 0.0625
Info: NONBONDED TABLE SIZE: 705 POINTS
TCL: Setting parameter alchLambda2 to 0.9500000000000003
Info: NONBONDED TABLE R-SQUARED SPACING: 0.0625
Info: NONBONDED TABLE SIZE: 705 POINTS
TCL: Running for 1500000 steps
ETITLE: TS BOND ANGLE DIHED IMPRP ELECT VDW BOUNDARY MISC KINETIC TOTAL TEMP POTENTIAL TOTALAVG TEMPAVG PRESSURE GPRESSURE VOLUME PRESSAVG GPRESSAVG
ENERGY: 0 3.9186 9.5555 3.9528 0.0000 -10650.2907 1426.0143 0.0000 0.0000 1711.8302 -7495.0192 289.1682 -9206.8494 -7495.0192 289.1682 209.6340 298.6264 30151.0307 209.6340 298.6264
ENERGY: 300000 5.3065 13.3000 6.4615 0.0000 -10506.8097 1313.3399 0.0000 0.0000 1732.4410 -7435.9608 292.6499 -9168.4017 -7474.5906 294.0957 -828.9204 -803.7804 31108.3635 -359.1369 -292.2336
ENERGY: 600000 1.1652 21.6794 6.7016 0.0000 -10793.4400 1467.4827 0.0000 0.0000 1876.5513 -7419.8598 316.9935 -9296.4111 -7478.5319 298.4987 231.7880 218.0160 30767.3103 -227.5499 -169.0572
ENERGY: 900000 3.9628 15.2098 8.4482 0.0000 -10648.4576 1420.0897 0.0000 0.0000 1755.1669 -7445.5802 296.4888 -9200.7471 -7474.2433 299.7199 -70.0304 8.1324 30523.2422 -162.6070 -88.4493
ENERGY: 1200000 1.7455 16.5954 4.3586 0.0000 -10671.5422 1402.0592 0.0000 0.0000 1782.7325 -7464.0511 301.1453 -9246.7836 -7482.6362 299.3427 -42.7674 50.8228 30441.1273 -202.8633 -120.9425
ENERGY: 1500000 4.0649 10.5832 7.0168 0.0000 -10718.1637 1438.7361 0.0000 0.0000 1760.2755 -7497.4872 297.3518 -9257.7627 -7472.4719 300.7073 -76.3333 -18.8669 30728.0234 -125.6253 -39.7547
TCL: Running FEP window  20: Lambda1 0.9500000000000003 Lambda2 1.0    [dLambda 0.04999999999999971]
TCL: Setting parameter firsttimestep to 0
TCL: Setting parameter alchLambda to 0.9500000000000003
Info: NONBONDED TABLE R-SQUARED SPACING: 0.0625
Info: NONBONDED TABLE SIZE: 705 POINTS
TCL: Setting parameter alchLambda2 to 1.0
Info: NONBONDED TABLE R-SQUARED SPACING: 0.0625
Info: NONBONDED TABLE SIZE: 705 POINTS
TCL: Running for 1500000 steps
ETITLE: TS BOND ANGLE DIHED IMPRP ELECT VDW BOUNDARY MISC KINETIC TOTAL TEMP POTENTIAL TOTALAVG TEMPAVG PRESSURE GPRESSURE VOLUME PRESSAVG GPRESSAVG
ENERGY: 0 4.0648 10.5832 7.0168 0.0000 -10719.7479 1440.1289 0.0000 0.0000 1759.4093 -7498.5448 297.2055 -9257.9541 -7498.5448 297.2055 -95.7729 11.6832 30728.0234 -95.7729 11.6832
ENERGY: 300000 3.2650 11.3539 4.8235 0.0000 -10756.2803 1416.7646 0.0000 0.0000 1774.0241 -7546.0492 299.6742 -9320.0732 -7483.3219 300.6440 -314.2064 -258.2791 30674.4710 38.2850 105.6565
ENERGY: 600000 5.0431 16.0216 5.9255 0.0000 -10571.9672 1319.1075 0.0000 0.0000 1768.7771 -7457.0922 298.7879 -9225.8694 -7479.2045 302.1339 -969.6065 -944.9833 31018.3805 -145.8016 -95.3431
ENERGY: 900000 2.6023 12.6304 7.5030 0.0000 -10697.3860 1432.0453 0.0000 0.0000 1742.8625 -7499.7425 294.4103 -9242.6050 -7473.8449 301.6158 -122.4095 -16.7739 30782.3929 -163.3045 -102.7555
ENERGY: 1200000 1.4588 6.4969 7.5316 0.0000 -10681.5766 1454.2060 0.0000 0.0000 1701.2862 -7510.5971 287.3871 -9211.8833 -7478.5337 300.8540 101.0165 124.1242 30971.1398 -71.7557 -16.2703
ENERGY: 1500000 1.6600 11.4181 6.1207 0.0000 -10751.9217 1381.8964 0.0000 0.0000 1752.4307 -7598.3959 296.0266 -9350.8266 -7488.0835 301.2748 -866.7993 -860.3017 31011.6557 -91.0458 -41.7245
TCL: Exiting due to exit command.
