Info: SIMULATION PARAMETERS:
Info: TIMESTEP               2
Info: NUMBER OF STEPS        0
Info: STEPS PER CYCLE        10
Info: PERIODIC CELL BASIS 1  32.6654 0 0
Info: PERIODIC CELL BASIS 2  0 27.5485 0
Info: PERIODIC CELL BASIS 3  0 0 34.4731
Info: PERIODIC CELL CENTER   0 0 0
Info: WRAPPING WATERS AROUND PERIODIC BOUNDARIES ON OUTPUT.
Info: WRAPPING ALL CLUSTERS AROUND PERIODIC BOUNDARIES ON OUTPUT.
Info: FIRST LDB TIMESTEP     50
Info: LAST LDB TIMESTEP     -1
Info: HOM BACKGROUND SCALING 1
Info: PME BACKGROUND SCALING 1
Info: MIN ATOMS PER PATCH    40
Info: EMPTY PATCH LOAD       40 ATOMS
Info: VELOCITY FILE          mobley_7912193_equil.vel
Info: CENTER OF MASS MOVING INITIALLY? NO
Info: DIELECTRIC             1
Info: EXCLUDE                SCALED ONE-FOUR
Info: 1-4 ELECTROSTATICS SCALED BY 0.833333
Info: MODIFIED 1-4 VDW PARAMETERS WILL BE USED
Info: DCD FILENAME           mobley_7912193_prod.dcd
Info: DCD FREQUENCY          100000
Info: DCD FIRST STEP         100000
Info: DCD FILE WILL CONTAIN UNIT CELL DATA
Info: XST FILENAME           mobley_7912193_prod.xst
Info: XST FREQUENCY          100000
Info: NO VELOCITY DCD OUTPUT
Info: NO FORCE DCD OUTPUT
Info: OUTPUT FILENAME        mobley_7912193_prod
Info: BINARY OUTPUT FILES WILL BE USED
Info: RESTART FILENAME       mobley_7912193_prod.restart
Info: RESTART FREQUENCY      100000
Info: BINARY RESTART FILES WILL BE USED
Info: CUTOFF                 9
Info: PAIRLIST DISTANCE      11
Info: PAIRLIST SHRINK RATE   0.01
Info: PAIRLIST GROW RATE     0.01
Info: PAIRLIST TRIGGER       0.3
Info: PAIRLISTS PER CYCLE    2
Info: PAIRLISTS ENABLED
Info: MARGIN                 2
Info: HYDROGEN GROUP CUTOFF  2.5
Info: PATCH DIMENSION        15.5
Info: ENERGY OUTPUT STEPS    100000
Info: ENERGY EVALUATION STEPS    100000
Info: OUTPUT ENERGY PRECISION 4
Info: CROSSTERM ENERGY INCLUDED IN DIHEDRAL
Info: TIMING OUTPUT STEPS    1000000
Info: PRESSURE OUTPUT STEPS  100000
Info: ALCHEMICAL FEP ON
Info: FEP CURRENT LAMBDA VALUE     1
Info: FEP COMPARISON LAMBDA VALUE  0.95
Info: FEP INTRA-ALCHEMICAL NON-BONDED INTERACTIONS WILL BE RETAINED
Info: FEP INTRA-ALCHEMICAL BONDED INTERACTIONS WILL BE RETAINED
Info: FEP VDW SHIFTING COEFFICIENT 5
Info: FEP ELEC. ACTIVE FOR ANNIHILATED PARTICLES BETWEEN LAMBDA = 0 AND LAMBDA = 0.5
Info: FEP ELEC. ACTIVE FOR EXNIHILATED PARTICLES BETWEEN LAMBDA = 0.5 AND LAMBDA = 1
Info: FEP VDW ACTIVE FOR ANNIHILATED PARTICLES BETWEEN LAMBDA = 0 AND LAMBDA = 1
Info: FEP VDW ACTIVE FOR EXNIHILATED PARTICLES BETWEEN LAMBDA = 0 AND LAMBDA = 1
Info: FEP BOND ACTIVE FOR ANNIHILATED PARTICLES BETWEEN LAMBDA = 1 AND LAMBDA = 1
Info: FEP BOND ACTIVE FOR EXNIHILATED PARTICLES BETWEEN LAMBDA = 0 AND LAMBDA = 0
Info: LANGEVIN DYNAMICS ACTIVE
Info: LANGEVIN TEMPERATURE   300
Info: LANGEVIN USING BBK INTEGRATOR
Info: LANGEVIN DAMPING COEFFICIENT IS 1 INVERSE PS
Info: LANGEVIN DYNAMICS APPLIED TO HYDROGENS
Info: LANGEVIN PISTON PRESSURE CONTROL ACTIVE
Info:        TARGET PRESSURE IS 1.01325 BAR
Info:     OSCILLATION PERIOD IS 50 FS
Info:             DECAY TIME IS 25 FS
Info:     PISTON TEMPERATURE IS 300 K
Info:       PRESSURE CONTROL IS GROUP-BASED
Info:    INITIAL STRAIN RATE IS 0.000166789 0.000166789 0.000166789
Info:       CELL FLUCTUATION IS ISOTROPIC
Info: PARTICLE MESH EWALD (PME) ACTIVE
Info: PME TOLERANCE               1e-06
Info: PME EWALD COEFFICIENT       0.348832
Info: PME INTERPOLATION ORDER     4
Info: PME GRID DIMENSIONS         36 28 36
Info: PME MAXIMUM GRID SPACING    1
Info: PME CALCULATION WILL BE PERFORMED ON GPU
Info: FULL ELECTROSTATIC EVALUATION FREQUENCY      2
Info: USING VERLET I (r-RESPA) MTS SCHEME.
Info: C1 SPLITTING OF LONG RANGE ELECTROSTATICS
Info: PLACING ATOMS IN PATCHES BY HYDROGEN GROUPS
Info: RIGID BONDS TO HYDROGEN : ALL
Info:         ERROR TOLERANCE : 1e-08
Info:          MAX ITERATIONS : 100
Info: RIGID WATER USING SETTLE ALGORITHM
Info: RANDOM NUMBER SEED     1744011828
Info: USE HYDROGEN BONDS?    NO
Info: Using AMBER format force field!
Info: AMBER PARM FILE        mobley_7912193.prmtop
Info: COORDINATE PDB         mobley_7912193.pdb
Info: Exclusions will be read from PARM file!
Info: SCNB (VDW SCALING)     2
Info: USING ARITHMETIC MEAN TO COMBINE L-J SIGMA PARAMETERS
Info: BINARY COORDINATES     mobley_7912193_equil.coor
Info: SUMMARY OF PARAMETERS:
Info: 13 BONDS
Info: 16 ANGLES
Info:   16 HARMONIC
Info:   0 COSINE-BASED
Info: 17 DIHEDRAL
Info: 0 IMPROPER
Info: 0 CROSSTERM
Info: 0 VDW
Info: 55 VDW_PAIRS
Info: 0 NBTHOLE_PAIRS
Info: To read alchdata from file: mobley_7912193.pdb
Info: To read alchflag data from column: 5
Info: STRUCTURE SUMMARY:
Info: 2992 ATOMS
Info: 2992 BONDS
Info: 47 ANGLES
Info: 75 DIHEDRALS
Info: 0 IMPROPERS
Info: 0 CROSSTERMS
Info: 3098 EXCLUSIONS
Info: 2978 RIGID BONDS
Info: ALCH: 0 ATOMS TO DISAPPEAR IN FINAL STATE
Info: ALCH: 28 ATOMS TO APPEAR IN FINAL STATE
Info: 5998 DEGREES OF FREEDOM
Info: 1002 HYDROGEN GROUPS
Info: 4 ATOMS IN LARGEST HYDROGEN GROUP
Info: 1002 MIGRATION GROUPS
Info: 4 ATOMS IN LARGEST MIGRATION GROUP
Info: TOTAL MASS = 17994 amu
Info: TOTAL CHARGE = -5.21541e-08 e
Info: MASS DENSITY = 0.963211 g/cm^3
Info: ATOM DENSITY = 0.0964484 atoms/A^3
Info: ADDED 0 IMPLICIT EXCLUSIONS
Info: NONBONDED TABLE R-SQUARED SPACING: 0.0625
Info: NONBONDED TABLE SIZE: 705 POINTS
Info: REMOVING COM VELOCITY -0.112875 -0.044545 -0.0243447
Info: Use 3D box decompostion in PME FFT.
Info: Updated CUDA force table with 4096 elements.
Info: Updated CUDA LJ table with 10 x 10 elements.
Info: Found 30 unique exclusion lists needing 116 bytes
TCL: Running for 1500000 steps
ETITLE: TS BOND ANGLE DIHED IMPRP ELECT VDW BOUNDARY MISC KINETIC TOTAL TEMP POTENTIAL TOTALAVG TEMPAVG PRESSURE GPRESSURE VOLUME PRESSAVG GPRESSAVG
ENERGY: 0 5.0803 13.1014 4.4751 0.0000 -10695.2963 1333.9868 0.0000 0.0000 1809.2682 -7529.3846 303.5896 -9338.6527 -7529.3846 303.5896 -703.1853 -610.9712 31021.7597 -703.1853 -610.9712
ENERGY: 300000 9.5531 6.5170 10.4582 0.0000 -10923.6679 1486.5462 0.0000 0.0000 1821.1463 -7589.4472 305.5827 -9410.5934 -7566.5763 299.4819 279.5066 330.2761 30660.9966 -361.6439 -295.7307
ENERGY: 600000 9.0149 9.0037 9.3555 0.0000 -10843.0135 1466.9385 0.0000 0.0000 1785.4718 -7563.2292 299.5966 -9348.7009 -7555.4300 299.7426 321.8606 366.4991 30635.0493 -46.7799 5.4066
ENERGY: 900000 6.1902 12.1034 6.9448 0.0000 -10862.8673 1451.2775 0.0000 0.0000 1809.9796 -7576.3718 303.7090 -9386.3514 -7558.6978 299.7054 60.2471 146.5633 30303.3275 -50.4126 4.3210
ENERGY: 1200000 4.1625 12.4120 8.8986 0.0000 -10785.6263 1360.9289 0.0000 0.0000 1799.5311 -7599.6932 301.9557 -9399.2244 -7564.6380 299.9297 -764.5377 -742.9165 30674.4245 -127.7040 -83.3471
ENERGY: 1500000 3.1327 7.6528 6.3706 0.0000 -10816.8096 1460.0934 0.0000 0.0000 1770.7652 -7568.7949 297.1289 -9339.5601 -7558.7426 299.9457 313.2106 307.2484 30543.7356 -116.3575 -67.3716
TCL: Running FEP window   2: Lambda1 0.95   Lambda2 0.8999999999999999 [dLambda -0.050000000000000044]
TCL: Setting parameter firsttimestep to 0
TCL: Setting parameter alchLambda to 0.95
Info: NONBONDED TABLE R-SQUARED SPACING: 0.0625
Info: NONBONDED TABLE SIZE: 705 POINTS
TCL: Setting parameter alchLambda2 to 0.8999999999999999
Info: NONBONDED TABLE R-SQUARED SPACING: 0.0625
Info: NONBONDED TABLE SIZE: 705 POINTS
TCL: Running for 1500000 steps
ETITLE: TS BOND ANGLE DIHED IMPRP ELECT VDW BOUNDARY MISC KINETIC TOTAL TEMP POTENTIAL TOTALAVG TEMPAVG PRESSURE GPRESSURE VOLUME PRESSAVG GPRESSAVG
ENERGY: 0 3.1327 7.6528 6.3706 0.0000 -10814.9810 1460.5312 0.0000 0.0000 1769.8766 -7567.4171 296.9798 -9337.2937 -7567.4171 296.9798 203.2311 297.2213 30543.7356 203.2311 297.2213
ENERGY: 300000 4.5488 11.2566 7.6179 0.0000 -10793.5693 1446.1528 0.0000 0.0000 1780.5455 -7543.4477 298.7700 -9323.9932 -7573.1331 296.8594 41.2883 170.6745 30866.7647 44.9767 134.2058
ENERGY: 600000 5.3315 5.3734 8.6522 0.0000 -10801.2116 1419.5201 0.0000 0.0000 1825.6252 -7536.7092 306.3342 -9362.3344 -7552.6646 298.6680 -321.0610 -276.5595 30866.0768 -21.9538 46.0356
ENERGY: 900000 3.8094 19.1834 4.5534 0.0000 -10717.6168 1406.1207 0.0000 0.0000 1782.2252 -7501.7247 299.0519 -9283.9499 -7540.5040 299.7884 -371.1639 -223.4796 31137.3800 82.6967 155.5724
ENERGY: 1200000 3.1537 13.9356 5.9815 0.0000 -10824.9854 1471.1622 0.0000 0.0000 1800.5352 -7530.2171 302.1242 -9330.7523 -7528.9339 300.5164 42.0807 82.0572 31271.9569 130.5256 205.7120
ENERGY: 1500000 2.9512 11.4399 8.0172 0.0000 -10882.5500 1471.9096 0.0000 0.0000 1872.8131 -7515.4190 314.2522 -9388.2321 -7528.4848 301.4598 458.3125 416.7346 30432.1247 123.0312 189.0598
TCL: Running FEP window   3: Lambda1 0.8999999999999999 Lambda2 0.8499999999999999 [dLambda -0.050000000000000044]
TCL: Setting parameter firsttimestep to 0
TCL: Setting parameter alchLambda to 0.8999999999999999
Info: NONBONDED TABLE R-SQUARED SPACING: 0.0625
Info: NONBONDED TABLE SIZE: 705 POINTS
TCL: Setting parameter alchLambda2 to 0.8499999999999999
Info: NONBONDED TABLE R-SQUARED SPACING: 0.0625
Info: NONBONDED TABLE SIZE: 705 POINTS
TCL: Running for 1500000 steps
ETITLE: TS BOND ANGLE DIHED IMPRP ELECT VDW BOUNDARY MISC KINETIC TOTAL TEMP POTENTIAL TOTALAVG TEMPAVG PRESSURE GPRESSURE VOLUME PRESSAVG GPRESSAVG
ENERGY: 0 2.9512 11.4399 8.0172 0.0000 -10880.6148 1471.9779 0.0000 0.0000 1871.8845 -7514.3440 314.0964 -9386.2286 -7514.3440 314.0964 332.3915 399.2436 30432.1247 332.3915 399.2436
ENERGY: 300000 5.1262 8.6655 6.1290 0.0000 -10648.0488 1366.3997 0.0000 0.0000 1756.6012 -7505.1271 294.7522 -9261.7283 -7529.3312 301.7826 -526.1238 -464.0713 31009.8877 -111.7450 -35.0468
ENERGY: 600000 6.5689 5.1630 5.2211 0.0000 -10852.9755 1473.2594 0.0000 0.0000 1751.7598 -7611.0032 293.9399 -9362.7630 -7578.5317 298.0684 138.1595 198.2975 30809.2637 -178.2588 -104.8456
ENERGY: 900000 4.5370 10.9123 5.8765 0.0000 -10830.4683 1413.6091 0.0000 0.0000 1821.9217 -7573.6117 305.7128 -9395.5334 -7576.7851 299.9579 -336.0184 -279.1164 30723.1406 -154.2905 -84.1168
ENERGY: 1200000 5.9893 10.2769 5.4269 0.0000 -10852.2640 1410.4210 0.0000 0.0000 1815.4458 -7604.7041 304.6262 -9420.1500 -7575.0313 299.6027 -317.9245 -306.5468 30964.4686 -195.3621 -126.1519
ENERGY: 1500000 6.8325 7.9219 7.6530 0.0000 -10863.6412 1457.3105 0.0000 0.0000 1790.4200 -7593.5032 300.4269 -9383.9232 -7573.9618 300.1166 260.2739 312.3570 30674.7123 -115.0252 -46.3996
TCL: Running FEP window   4: Lambda1 0.8499999999999999 Lambda2 0.7999999999999998 [dLambda -0.050000000000000044]
TCL: Setting parameter firsttimestep to 0
TCL: Setting parameter alchLambda to 0.8499999999999999
Info: NONBONDED TABLE R-SQUARED SPACING: 0.0625
Info: NONBONDED TABLE SIZE: 705 POINTS
TCL: Setting parameter alchLambda2 to 0.7999999999999998
Info: NONBONDED TABLE R-SQUARED SPACING: 0.0625
Info: NONBONDED TABLE SIZE: 705 POINTS
TCL: Running for 1500000 steps
ETITLE: TS BOND ANGLE DIHED IMPRP ELECT VDW BOUNDARY MISC KINETIC TOTAL TEMP POTENTIAL TOTALAVG TEMPAVG PRESSURE GPRESSURE VOLUME PRESSAVG GPRESSAVG
ENERGY: 0 6.8325 7.9219 7.6530 0.0000 -10860.6258 1456.9789 0.0000 0.0000 1789.5042 -7591.7352 300.2732 -9381.2394 -7591.7352 300.2732 225.1253 299.9375 30674.7123 225.1253 299.9375
ENERGY: 300000 4.5232 9.0177 6.2399 0.0000 -10908.6879 1525.8035 0.0000 0.0000 1770.2060 -7592.8976 297.0351 -9363.1036 -7559.1528 299.3808 140.0053 193.4932 31274.9378 173.6616 242.0167
ENERGY: 600000 4.4927 8.5014 7.8560 0.0000 -10619.8920 1311.8441 0.0000 0.0000 1847.2677 -7439.9302 309.9658 -9287.1979 -7535.8756 300.3441 -996.5612 -913.3282 31132.7549 -182.1305 -104.9636
ENERGY: 900000 3.7191 12.4905 4.2427 0.0000 -10655.5202 1335.0729 0.0000 0.0000 1814.7840 -7485.2110 304.5151 -9299.9950 -7536.6304 301.0920 -785.4956 -779.7309 31182.5097 -144.7698 -78.6017
ENERGY: 1200000 5.2918 10.0962 7.0654 0.0000 -10930.8004 1527.3504 0.0000 0.0000 1780.0827 -7600.9138 298.6924 -9380.9965 -7554.5805 301.0268 557.2686 648.4749 30683.0901 16.8600 91.6441
ENERGY: 1500000 4.1951 9.6284 9.9731 0.0000 -10864.7300 1505.8724 0.0000 0.0000 1895.4940 -7439.5671 318.0580 -9335.0610 -7551.4657 301.0524 886.0191 977.3593 30223.9558 64.8373 133.9964
TCL: Running FEP window   5: Lambda1 0.7999999999999998 Lambda2 0.7499999999999998 [dLambda -0.050000000000000044]
TCL: Setting parameter firsttimestep to 0
TCL: Setting parameter alchLambda to 0.7999999999999998
Info: NONBONDED TABLE R-SQUARED SPACING: 0.0625
Info: NONBONDED TABLE SIZE: 705 POINTS
TCL: Setting parameter alchLambda2 to 0.7499999999999998
Info: NONBONDED TABLE R-SQUARED SPACING: 0.0625
Info: NONBONDED TABLE SIZE: 705 POINTS
TCL: Running for 1500000 steps
ETITLE: TS BOND ANGLE DIHED IMPRP ELECT VDW BOUNDARY MISC KINETIC TOTAL TEMP POTENTIAL TOTALAVG TEMPAVG PRESSURE GPRESSURE VOLUME PRESSAVG GPRESSAVG
ENERGY: 0 4.1951 9.6284 9.9731 0.0000 -10862.7278 1505.7458 0.0000 0.0000 1894.6518 -7438.5337 317.9167 -9333.1855 -7438.5337 317.9167 885.7323 962.7684 30223.9558 885.7323 962.7684
ENERGY: 300000 2.6141 10.2412 8.6908 0.0000 -10710.6270 1404.3283 0.0000 0.0000 1760.7576 -7523.9951 295.4497 -9284.7527 -7547.1868 302.0050 -380.1243 -305.2708 30893.2569 -189.6432 -92.3622
ENERGY: 600000 3.2023 13.5801 8.3277 0.0000 -10755.0498 1455.8254 0.0000 0.0000 1797.8481 -7476.2663 301.6733 -9274.1144 -7531.9074 302.9036 168.1052 188.3029 30976.6187 -71.0680 2.4569
ENERGY: 900000 4.1645 10.2443 7.5999 0.0000 -10750.7686 1408.8997 0.0000 0.0000 1749.7120 -7570.1484 293.5962 -9319.8603 -7527.4145 302.0823 -411.3858 -341.8454 31117.8779 -186.7166 -112.9019
ENERGY: 1200000 7.5351 10.2103 10.0448 0.0000 -10851.1591 1472.0715 0.0000 0.0000 1833.3486 -7517.9488 307.6302 -9351.2974 -7527.6412 302.5431 414.7114 444.4464 30555.1841 -180.1678 -108.9660
ENERGY: 1500000 7.9194 8.7557 9.1695 0.0000 -10879.6109 1460.2242 0.0000 0.0000 1788.1802 -7605.3618 300.0511 -9393.5421 -7534.5179 301.0056 -276.8070 -225.2600 31028.0648 -261.6675 -194.5640
TCL: Running FEP window   6: Lambda1 0.7499999999999998 Lambda2 0.6999999999999997 [dLambda -0.050000000000000044]
TCL: Setting parameter firsttimestep to 0
TCL: Setting parameter alchLambda to 0.7499999999999998
Info: NONBONDED TABLE R-SQUARED SPACING: 0.0625
Info: NONBONDED TABLE SIZE: 705 POINTS
TCL: Setting parameter alchLambda2 to 0.6999999999999997
Info: NONBONDED TABLE R-SQUARED SPACING: 0.0625
Info: NONBONDED TABLE SIZE: 705 POINTS
TCL: Running for 1500000 steps
ETITLE: TS BOND ANGLE DIHED IMPRP ELECT VDW BOUNDARY MISC KINETIC TOTAL TEMP POTENTIAL TOTALAVG TEMPAVG PRESSURE GPRESSURE VOLUME PRESSAVG GPRESSAVG
ENERGY: 0 7.9194 8.7557 9.1695 0.0000 -10877.0209 1459.5859 0.0000 0.0000 1787.2854 -7604.3050 299.9009 -9391.5904 -7604.3050 299.9009 -305.1803 -241.5889 31028.0648 -305.1803 -241.5889
ENERGY: 300000 4.1266 5.2790 8.3118 0.0000 -10795.3120 1493.1152 0.0000 0.0000 1792.7636 -7491.7159 300.8202 -9284.4795 -7528.9948 302.8491 412.6344 387.8822 31051.2229 -248.8018 -221.8812
ENERGY: 600000 2.2126 7.3314 8.6109 0.0000 -10878.6048 1512.3969 0.0000 0.0000 1804.8573 -7543.1957 302.8494 -9348.0530 -7544.8508 301.8214 253.8178 260.2891 31399.7559 -30.9748 4.8032
ENERGY: 900000 5.2511 16.2976 6.5644 0.0000 -10729.8133 1425.0433 0.0000 0.0000 1783.1790 -7493.4781 299.2119 -9276.6570 -7541.8410 300.6967 -64.4917 40.2359 30463.1862 -55.2332 2.4207
ENERGY: 1200000 6.1543 15.4408 6.9062 0.0000 -10815.1608 1419.5858 0.0000 0.0000 1798.0885 -7568.9852 301.7137 -9367.0737 -7545.7894 300.2552 -712.5920 -651.4117 31074.9496 -92.9646 -37.4730
ENERGY: 1500000 6.7897 10.9312 8.9060 0.0000 -10876.6416 1467.8482 0.0000 0.0000 1798.3898 -7583.7767 301.7642 -9382.1665 -7548.8772 300.6093 -243.3927 -153.3003 31030.9058 -40.5283 21.0397
TCL: Running FEP window   7: Lambda1 0.6999999999999997 Lambda2 0.6499999999999997 [dLambda -0.050000000000000044]
TCL: Setting parameter firsttimestep to 0
TCL: Setting parameter alchLambda to 0.6999999999999997
Info: NONBONDED TABLE R-SQUARED SPACING: 0.0625
Info: NONBONDED TABLE SIZE: 705 POINTS
TCL: Setting parameter alchLambda2 to 0.6499999999999997
Info: NONBONDED TABLE R-SQUARED SPACING: 0.0625
Info: NONBONDED TABLE SIZE: 705 POINTS
TCL: Running for 1500000 steps
ETITLE: TS BOND ANGLE DIHED IMPRP ELECT VDW BOUNDARY MISC KINETIC TOTAL TEMP POTENTIAL TOTALAVG TEMPAVG PRESSURE GPRESSURE VOLUME PRESSAVG GPRESSAVG
ENERGY: 0 6.7897 10.9312 8.9060 0.0000 -10874.4938 1467.6958 0.0000 0.0000 1797.5158 -7582.6552 301.6176 -9380.1710 -7582.6552 301.6176 -248.2797 -163.4630 31030.9058 -248.2797 -163.4630
ENERGY: 300000 5.8502 11.2367 7.4091 0.0000 -10802.8254 1421.8182 0.0000 0.0000 1821.0861 -7535.4251 305.5726 -9356.5112 -7525.7009 303.4288 -381.2612 -303.1283 30830.3873 -295.6264 -236.1028
ENERGY: 600000 6.1170 10.0313 7.7385 0.0000 -10801.4900 1398.6538 0.0000 0.0000 1786.4696 -7592.4799 299.7641 -9378.9495 -7551.9426 302.4028 -403.6951 -333.2116 30693.1910 -63.4600 -1.3475
ENERGY: 900000 1.4113 9.1327 9.5568 0.0000 -10780.6108 1375.7807 0.0000 0.0000 1741.5845 -7643.1449 292.2325 -9384.7293 -7568.7747 301.1922 -764.8025 -779.3934 31226.2301 -115.1940 -52.5642
ENERGY: 1200000 6.4510 10.1151 7.8239 0.0000 -10679.8395 1357.2343 0.0000 0.0000 1808.9044 -7489.3109 303.5285 -9298.2153 -7560.8886 300.8887 -833.9157 -760.8630 31083.6059 -104.4942 -41.6237
ENERGY: 1500000 2.0510 14.0169 8.3315 0.0000 -10712.7452 1429.9027 0.0000 0.0000 1772.3876 -7486.0554 297.4011 -9258.4430 -7557.3760 299.6112 -33.5833 50.5039 31219.6059 -130.6652 -64.0516
TCL: Running FEP window   8: Lambda1 0.6499999999999997 Lambda2 0.5999999999999996 [dLambda -0.050000000000000044]
TCL: Setting parameter firsttimestep to 0
TCL: Setting parameter alchLambda to 0.6499999999999997
Info: NONBONDED TABLE R-SQUARED SPACING: 0.0625
Info: NONBONDED TABLE SIZE: 705 POINTS
TCL: Setting parameter alchLambda2 to 0.5999999999999996
Info: NONBONDED TABLE R-SQUARED SPACING: 0.0625
Info: NONBONDED TABLE SIZE: 705 POINTS
TCL: Running for 1500000 steps
ETITLE: TS BOND ANGLE DIHED IMPRP ELECT VDW BOUNDARY MISC KINETIC TOTAL TEMP POTENTIAL TOTALAVG TEMPAVG PRESSURE GPRESSURE VOLUME PRESSAVG GPRESSAVG
ENERGY: 0 2.0510 14.0169 8.3315 0.0000 -10710.7449 1429.2050 0.0000 0.0000 1771.4919 -7485.6487 297.2508 -9257.1405 -7485.6487 297.2508 -44.2944 34.4300 31219.6059 -44.2944 34.4300
ENERGY: 300000 6.8297 7.7677 10.3431 0.0000 -10805.9882 1491.5028 0.0000 0.0000 1740.6521 -7548.8928 292.0760 -9289.5449 -7501.9547 298.6354 56.2053 123.0849 31114.2314 554.1014 606.9598
ENERGY: 600000 4.3007 9.7320 5.6431 0.0000 -10827.0435 1438.3560 0.0000 0.0000 1756.0555 -7612.9563 294.6607 -9369.0118 -7511.8877 298.6301 -310.3690 -318.0186 30955.9158 251.5595 309.3934
ENERGY: 900000 6.0945 13.3182 7.6335 0.0000 -10872.0584 1504.0039 0.0000 0.0000 1807.3829 -7533.6255 303.2732 -9341.0083 -7523.7280 299.8882 269.0244 330.8200 30824.4694 120.7643 177.3220
ENERGY: 1200000 3.0377 10.4339 5.3151 0.0000 -10851.9771 1528.5266 0.0000 0.0000 1804.5195 -7500.1444 302.7928 -9304.6640 -7527.2248 299.4045 839.2106 916.9030 30524.5204 179.7091 235.4542
ENERGY: 1500000 5.3429 9.2959 9.4043 0.0000 -10853.2465 1480.5343 0.0000 0.0000 1754.1051 -7594.5639 294.3334 -9348.6690 -7542.6379 298.6884 245.5267 370.8469 30703.1698 113.3889 171.2624
TCL: Running FEP window   9: Lambda1 0.5999999999999996 Lambda2 0.5499999999999996 [dLambda -0.050000000000000044]
TCL: Setting parameter firsttimestep to 0
TCL: Setting parameter alchLambda to 0.5999999999999996
Info: NONBONDED TABLE R-SQUARED SPACING: 0.0625
Info: NONBONDED TABLE SIZE: 705 POINTS
TCL: Setting parameter alchLambda2 to 0.5499999999999996
Info: NONBONDED TABLE R-SQUARED SPACING: 0.0625
Info: NONBONDED TABLE SIZE: 705 POINTS
TCL: Running for 1500000 steps
ETITLE: TS BOND ANGLE DIHED IMPRP ELECT VDW BOUNDARY MISC KINETIC TOTAL TEMP POTENTIAL TOTALAVG TEMPAVG PRESSURE GPRESSURE VOLUME PRESSAVG GPRESSAVG
ENERGY: 0 5.3429 9.2959 9.4043 0.0000 -10852.3019 1480.9349 0.0000 0.0000 1753.2207 -7594.1032 294.1850 -9347.3239 -7594.1032 294.1850 276.7283 365.0104 30703.1698 276.7283 365.0104
ENERGY: 300000 2.9923 9.1148 7.9400 0.0000 -10778.2180 1404.8159 0.0000 0.0000 1773.1575 -7580.1975 297.5303 -9353.3550 -7559.3138 295.1042 -592.5471 -545.8674 30693.1852 -44.1277 45.9059
ENERGY: 600000 6.2465 7.9615 9.5221 0.0000 -10728.3876 1389.4290 0.0000 0.0000 1793.4045 -7521.8241 300.9277 -9315.2285 -7547.6560 298.3602 -642.9890 -599.6582 31162.5615 -118.5161 -54.4557
ENERGY: 900000 5.0858 5.5896 6.7126 0.0000 -10809.1332 1512.8114 0.0000 0.0000 1785.2463 -7493.6874 299.5588 -9278.9337 -7557.0970 297.3231 376.1625 393.5150 31029.1240 -114.7265 -59.5780
ENERGY: 1200000 5.8437 13.6669 10.8874 0.0000 -10763.8430 1420.5519 0.0000 0.0000 1750.5823 -7562.3110 293.7423 -9312.8932 -7555.2764 297.6753 -519.2795 -466.9765 31189.0782 -120.8761 -63.1686
ENERGY: 1500000 6.1136 10.2016 7.2759 0.0000 -10741.2272 1415.8758 0.0000 0.0000 1770.6040 -7531.1564 297.1018 -9301.7603 -7552.5517 297.1936 -464.4325 -427.0905 31361.5602 -147.0791 -95.7317
TCL: Running FEP window  10: Lambda1 0.5499999999999996 Lambda2 0.4999999999999996 [dLambda -0.04999999999999999]
TCL: Setting parameter firsttimestep to 0
TCL: Setting parameter alchLambda to 0.5499999999999996
Info: NONBONDED TABLE R-SQUARED SPACING: 0.0625
Info: NONBONDED TABLE SIZE: 705 POINTS
TCL: Setting parameter alchLambda2 to 0.4999999999999996
Info: NONBONDED TABLE R-SQUARED SPACING: 0.0625
Info: NONBONDED TABLE SIZE: 705 POINTS
TCL: Running for 1500000 steps
ETITLE: TS BOND ANGLE DIHED IMPRP ELECT VDW BOUNDARY MISC KINETIC TOTAL TEMP POTENTIAL TOTALAVG TEMPAVG PRESSURE GPRESSURE VOLUME PRESSAVG GPRESSAVG
ENERGY: 0 6.1136 10.2016 7.2759 0.0000 -10739.9596 1415.2336 0.0000 0.0000 1769.7322 -7531.4027 296.9556 -9301.1349 -7531.4027 296.9556 -525.4546 -441.2996 31361.5602 -525.4546 -441.2996
ENERGY: 300000 2.9140 10.1966 8.4952 0.0000 -10793.3959 1384.8508 0.0000 0.0000 1805.8445 -7581.0948 303.0151 -9386.9393 -7567.2755 299.8952 -839.7780 -727.7275 30960.2911 -327.4239 -210.1129
ENERGY: 600000 5.6908 9.6110 6.7655 0.0000 -10889.4174 1587.6087 0.0000 0.0000 1794.4820 -7485.2594 301.1085 -9279.7414 -7547.9631 299.8622 1071.1838 1056.4600 30889.8808 -102.2848 -19.0493
ENERGY: 900000 1.4454 12.6695 13.0320 0.0000 -10706.1534 1363.3684 0.0000 0.0000 1751.9321 -7563.7060 293.9688 -9315.6381 -7560.2237 298.7035 -715.6765 -680.3910 31079.1443 -1.0227 70.9505
ENERGY: 1200000 7.7520 12.9027 6.3797 0.0000 -10837.4654 1465.5513 0.0000 0.0000 1823.3522 -7521.5275 305.9528 -9344.8797 -7560.5296 299.1996 -57.0025 48.2421 30649.5853 -29.1844 47.3350
ENERGY: 1500000 5.1485 11.8240 8.0228 0.0000 -10856.2116 1531.8882 0.0000 0.0000 1754.3114 -7545.0168 294.3680 -9299.3282 -7560.8011 298.7356 668.8374 711.5442 30828.2700 81.2627 153.0446
TCL: Running FEP window  11: Lambda1 0.4999999999999996 Lambda2 0.4499999999999996 [dLambda -0.04999999999999999]
TCL: Setting parameter firsttimestep to 0
TCL: Setting parameter alchLambda to 0.4999999999999996
Info: NONBONDED TABLE R-SQUARED SPACING: 0.0625
Info: NONBONDED TABLE SIZE: 705 POINTS
TCL: Setting parameter alchLambda2 to 0.4499999999999996
Info: NONBONDED TABLE R-SQUARED SPACING: 0.0625
Info: NONBONDED TABLE SIZE: 705 POINTS
TCL: Running for 1500000 steps
ETITLE: TS BOND ANGLE DIHED IMPRP ELECT VDW BOUNDARY MISC KINETIC TOTAL TEMP POTENTIAL TOTALAVG TEMPAVG PRESSURE GPRESSURE VOLUME PRESSAVG GPRESSAVG
ENERGY: 0 5.1485 11.8240 8.0228 0.0000 -10855.6069 1531.4292 0.0000 0.0000 1753.4278 -7545.7546 294.2197 -9299.1824 -7545.7546 294.2197 627.6162 698.1648 30828.2700 627.6162 698.1648
ENERGY: 300000 3.8256 11.1516 7.8556 0.0000 -10697.8206 1363.0623 0.0000 0.0000 1834.2521 -7477.6734 307.7818 -9311.9255 -7525.6883 299.1444 -734.0484 -684.6000 30785.4752 72.5689 121.1278
ENERGY: 600000 4.9911 11.1181 4.3698 0.0000 -10747.8091 1417.6049 0.0000 0.0000 1825.7784 -7483.9468 306.3600 -9309.7253 -7539.6585 300.1922 -521.5671 -429.8426 31131.2183 62.7854 119.0089
ENERGY: 900000 6.5998 9.9961 9.4090 0.0000 -10792.5827 1479.2104 0.0000 0.0000 1838.8042 -7448.5632 308.5456 -9287.3674 -7531.9827 301.3945 5.6355 67.1294 31180.6123 57.5693 111.0736
ENERGY: 1200000 4.6449 10.2035 5.4571 0.0000 -10811.6753 1442.9451 0.0000 0.0000 1822.0783 -7526.3464 305.7391 -9348.4248 -7527.3816 301.3952 -259.4793 -229.3527 31178.5805 -37.3879 21.8714
ENERGY: 1500000 5.1070 8.6871 5.7054 0.0000 -10842.8286 1494.1112 0.0000 0.0000 1767.9110 -7561.3069 296.6500 -9329.2179 -7531.9745 300.2186 160.6172 274.1018 30956.5406 14.6603 79.9989
TCL: Running FEP window  12: Lambda1 0.4499999999999996 Lambda2 0.39999999999999963 [dLambda -0.04999999999999999]
TCL: Setting parameter firsttimestep to 0
TCL: Setting parameter alchLambda to 0.4499999999999996
Info: NONBONDED TABLE R-SQUARED SPACING: 0.0625
Info: NONBONDED TABLE SIZE: 705 POINTS
TCL: Setting parameter alchLambda2 to 0.39999999999999963
Info: NONBONDED TABLE R-SQUARED SPACING: 0.0625
Info: NONBONDED TABLE SIZE: 705 POINTS
TCL: Running for 1500000 steps
ETITLE: TS BOND ANGLE DIHED IMPRP ELECT VDW BOUNDARY MISC KINETIC TOTAL TEMP POTENTIAL TOTALAVG TEMPAVG PRESSURE GPRESSURE VOLUME PRESSAVG GPRESSAVG
ENERGY: 0 5.1070 8.6871 5.7054 0.0000 -10842.8285 1493.8803 0.0000 0.0000 1767.0466 -7562.4021 296.5049 -9329.4487 -7562.4021 296.5049 200.3761 264.9842 30956.5406 200.3761 264.9842
ENERGY: 300000 3.7450 5.1584 8.3430 0.0000 -10880.9139 1500.2200 0.0000 0.0000 1798.9498 -7564.4977 301.8582 -9363.4475 -7584.2563 296.2764 94.9899 223.4229 30861.3454 168.7472 256.3846
ENERGY: 600000 7.4192 7.4704 6.0822 0.0000 -10662.9240 1377.2564 0.0000 0.0000 1778.9481 -7485.7476 298.5020 -9264.6957 -7573.8471 295.5955 -342.0376 -309.2470 30590.2684 -7.0898 51.7962
ENERGY: 900000 2.8084 11.5810 7.9818 0.0000 -10832.3251 1412.9070 0.0000 0.0000 1812.0675 -7584.9793 304.0593 -9397.0468 -7573.4381 297.7081 -567.8412 -500.8930 30745.2017 -28.2903 38.2642
ENERGY: 1200000 3.4078 12.5315 7.2895 0.0000 -10810.2156 1478.4458 0.0000 0.0000 1800.2320 -7508.3091 302.0733 -9308.5412 -7554.4268 298.7762 91.5852 165.4516 30719.7550 -51.2726 18.6872
ENERGY: 1500000 3.6243 14.5806 7.9174 0.0000 -10821.6010 1514.5560 0.0000 0.0000 1808.8691 -7472.0536 303.5226 -9280.9228 -7556.3739 298.9996 439.9681 559.8437 30984.0829 -30.5898 42.7603
TCL: Running FEP window  13: Lambda1 0.39999999999999963 Lambda2 0.34999999999999964 [dLambda -0.04999999999999999]
TCL: Setting parameter firsttimestep to 0
TCL: Setting parameter alchLambda to 0.39999999999999963
Info: NONBONDED TABLE R-SQUARED SPACING: 0.0625
Info: NONBONDED TABLE SIZE: 705 POINTS
TCL: Setting parameter alchLambda2 to 0.34999999999999964
Info: NONBONDED TABLE R-SQUARED SPACING: 0.0625
Info: NONBONDED TABLE SIZE: 705 POINTS
TCL: Running for 1500000 steps
ETITLE: TS BOND ANGLE DIHED IMPRP ELECT VDW BOUNDARY MISC KINETIC TOTAL TEMP POTENTIAL TOTALAVG TEMPAVG PRESSURE GPRESSURE VOLUME PRESSAVG GPRESSAVG
ENERGY: 0 3.6243 14.5806 7.9174 0.0000 -10821.6007 1515.2243 0.0000 0.0000 1808.0290 -7472.2252 303.3816 -9280.2542 -7472.2252 303.3816 467.8188 558.3007 30984.0829 467.8188 558.3007
ENERGY: 300000 10.4924 11.4635 5.2869 0.0000 -10854.6602 1457.0095 0.0000 0.0000 1781.2875 -7589.1205 298.8945 -9370.4079 -7542.5558 298.5378 -88.3645 -7.3916 30710.4902 218.1157 286.8816
ENERGY: 600000 4.2550 8.0532 8.8295 0.0000 -10750.0511 1421.4325 0.0000 0.0000 1801.8008 -7505.6800 302.3366 -9307.4808 -7541.3993 299.8484 -252.4471 -170.8370 30661.0032 58.4324 122.7955
ENERGY: 900000 4.6868 10.0469 5.1212 0.0000 -11028.6848 1615.0296 0.0000 0.0000 1812.5598 -7581.2404 304.1419 -9393.8003 -7527.4526 300.1345 922.3917 994.5518 30588.3473 154.2360 222.4421
ENERGY: 1200000 1.9219 8.0119 6.1370 0.0000 -10789.3607 1420.5437 0.0000 0.0000 1758.9462 -7593.8000 295.1457 -9352.7462 -7531.2673 299.8727 -400.2276 -376.3563 31101.0273 164.9354 231.6995
ENERGY: 1500000 5.3345 8.8879 11.1961 0.0000 -10751.3761 1398.4438 0.0000 0.0000 1742.4368 -7585.0769 292.3755 -9327.5137 -7539.2895 300.1952 -542.5611 -409.3465 30907.0792 112.0588 185.2019
TCL: Running FEP window  14: Lambda1 0.34999999999999964 Lambda2 0.29999999999999966 [dLambda -0.04999999999999999]
TCL: Setting parameter firsttimestep to 0
TCL: Setting parameter alchLambda to 0.34999999999999964
Info: NONBONDED TABLE R-SQUARED SPACING: 0.0625
Info: NONBONDED TABLE SIZE: 705 POINTS
TCL: Setting parameter alchLambda2 to 0.29999999999999966
Info: NONBONDED TABLE R-SQUARED SPACING: 0.0625
Info: NONBONDED TABLE SIZE: 705 POINTS
TCL: Running for 1500000 steps
ETITLE: TS BOND ANGLE DIHED IMPRP ELECT VDW BOUNDARY MISC KINETIC TOTAL TEMP POTENTIAL TOTALAVG TEMPAVG PRESSURE GPRESSURE VOLUME PRESSAVG GPRESSAVG
ENERGY: 0 5.3345 8.8879 11.1961 0.0000 -10751.3767 1399.2063 0.0000 0.0000 1741.5083 -7585.2435 292.2197 -9326.7519 -7585.2435 292.2197 -493.4972 -411.8205 30907.0792 -493.4972 -411.8205
ENERGY: 300000 5.7285 10.8580 7.7924 0.0000 -10978.6689 1547.7847 0.0000 0.0000 1813.0892 -7593.4162 304.2307 -9406.5053 -7559.7612 298.7809 353.3002 411.0191 30510.9093 6.2404 68.2144
ENERGY: 600000 3.8339 9.6632 7.3365 0.0000 -10818.9895 1461.3828 0.0000 0.0000 1755.5472 -7581.2260 294.5754 -9336.7733 -7560.3669 298.3120 -118.9534 -32.0049 31007.1715 72.4638 136.2790
ENERGY: 900000 2.6081 7.1420 9.7824 0.0000 -10959.9963 1562.9679 0.0000 0.0000 1813.3959 -7564.0999 304.2822 -9377.4958 -7558.0576 299.4100 937.0398 959.3009 30234.6164 78.9727 129.9753
ENERGY: 1200000 3.9494 6.1147 5.6358 0.0000 -10811.3121 1408.8136 0.0000 0.0000 1798.4851 -7588.3134 301.7802 -9386.7985 -7543.2177 299.5985 -486.6302 -439.6019 30581.2205 -70.2222 -18.0182
ENERGY: 1500000 4.6331 10.1685 6.2885 0.0000 -10883.5850 1522.4314 0.0000 0.0000 1812.1216 -7527.9419 304.0684 -9340.0635 -7539.4063 300.4044 886.6345 914.5704 30232.1998 40.1464 91.6776
TCL: Running FEP window  15: Lambda1 0.29999999999999966 Lambda2 0.24999999999999967 [dLambda -0.04999999999999999]
TCL: Setting parameter firsttimestep to 0
TCL: Setting parameter alchLambda to 0.29999999999999966
Info: NONBONDED TABLE R-SQUARED SPACING: 0.0625
Info: NONBONDED TABLE SIZE: 705 POINTS
TCL: Setting parameter alchLambda2 to 0.24999999999999967
Info: NONBONDED TABLE R-SQUARED SPACING: 0.0625
Info: NONBONDED TABLE SIZE: 705 POINTS
TCL: Running for 1500000 steps
ETITLE: TS BOND ANGLE DIHED IMPRP ELECT VDW BOUNDARY MISC KINETIC TOTAL TEMP POTENTIAL TOTALAVG TEMPAVG PRESSURE GPRESSURE VOLUME PRESSAVG GPRESSAVG
ENERGY: 0 4.6331 10.1685 6.2885 0.0000 -10883.5858 1523.2204 0.0000 0.0000 1811.2387 -7528.0367 303.9202 -9339.2754 -7528.0367 303.9202 832.0509 914.6074 30232.1998 832.0509 914.6074
ENERGY: 300000 6.0536 11.5251 9.1310 0.0000 -10821.2403 1444.5050 0.0000 0.0000 1811.5218 -7538.5038 303.9677 -9350.0256 -7551.6056 298.8447 -191.6627 -103.7717 31017.0353 -300.5852 -200.0118
ENERGY: 600000 6.4726 6.8686 6.1011 0.0000 -10641.8573 1407.9442 0.0000 0.0000 1718.6701 -7495.8007 288.3875 -9214.4708 -7515.5362 297.4462 -108.4759 -34.9304 30606.1810 -141.7760 -66.4275
ENERGY: 900000 3.9589 8.6039 8.5039 0.0000 -10869.8674 1496.6118 0.0000 0.0000 1819.7864 -7532.4026 305.3545 -9352.1890 -7539.8898 296.6537 -69.8223 4.6483 30994.5833 -120.2280 -49.6909
ENERGY: 1200000 3.0460 11.5511 7.9952 0.0000 -10755.8562 1442.3290 0.0000 0.0000 1776.4406 -7514.4944 298.0812 -9290.9350 -7543.6037 297.5564 8.4888 64.6753 30762.2506 -55.0613 9.9532
ENERGY: 1500000 5.3215 9.2424 7.2598 0.0000 -10816.1636 1411.9056 0.0000 0.0000 1817.8643 -7564.5701 305.0320 -9382.4344 -7546.1791 298.2407 -318.0664 -298.4275 30380.7199 -67.7160 2.1017
TCL: Running FEP window  16: Lambda1 0.24999999999999967 Lambda2 0.19999999999999968 [dLambda -0.04999999999999999]
TCL: Setting parameter firsttimestep to 0
TCL: Setting parameter alchLambda to 0.24999999999999967
Info: NONBONDED TABLE R-SQUARED SPACING: 0.0625
Info: NONBONDED TABLE SIZE: 705 POINTS
TCL: Setting parameter alchLambda2 to 0.19999999999999968
Info: NONBONDED TABLE R-SQUARED SPACING: 0.0625
Info: NONBONDED TABLE SIZE: 705 POINTS
TCL: Running for 1500000 steps
ETITLE: TS BOND ANGLE DIHED IMPRP ELECT VDW BOUNDARY MISC KINETIC TOTAL TEMP POTENTIAL TOTALAVG TEMPAVG PRESSURE GPRESSURE VOLUME PRESSAVG GPRESSAVG
ENERGY: 0 5.3215 9.2424 7.2598 0.0000 -10816.1633 1411.9484 0.0000 0.0000 1816.9969 -7565.3943 304.8864 -9382.3912 -7565.3943 304.8864 -376.0899 -305.5836 30380.7199 -376.0899 -305.5836
ENERGY: 300000 3.6058 9.3352 9.1721 0.0000 -10883.6651 1527.4342 0.0000 0.0000 1739.9007 -7594.2171 291.9499 -9334.1178 -7565.8261 302.1303 635.7609 711.3289 30452.8427 -167.1433 -72.8343
ENERGY: 600000 5.7622 9.9753 7.6662 0.0000 -10799.1128 1400.9155 0.0000 0.0000 1777.5998 -7597.1938 298.2757 -9374.7936 -7566.7581 301.3746 -551.0960 -484.4851 30840.5844 -292.5060 -205.9700
ENERGY: 900000 5.5738 8.2813 6.4798 0.0000 -10879.6565 1556.6212 0.0000 0.0000 1742.2629 -7560.4374 292.3463 -9302.7003 -7564.7990 300.2146 1225.8150 1326.8170 30217.7968 -41.5463 43.3276
ENERGY: 1200000 5.1709 10.0755 7.8703 0.0000 -10848.6114 1432.9064 0.0000 0.0000 1745.2777 -7647.3106 292.8522 -9392.5883 -7559.0430 300.1328 -379.0609 -347.7545 30779.9046 -66.1931 15.4434
ENERGY: 1500000 3.8134 9.3075 11.8817 0.0000 -10850.2922 1441.1895 0.0000 0.0000 1802.4399 -7581.6601 302.4438 -9384.1000 -7566.2823 299.6632 -336.9758 -224.6820 30667.1931 -7.1861 74.7029
TCL: Running FEP window  17: Lambda1 0.19999999999999968 Lambda2 0.1499999999999997 [dLambda -0.04999999999999999]
TCL: Setting parameter firsttimestep to 0
TCL: Setting parameter alchLambda to 0.19999999999999968
Info: NONBONDED TABLE R-SQUARED SPACING: 0.0625
Info: NONBONDED TABLE SIZE: 705 POINTS
TCL: Setting parameter alchLambda2 to 0.1499999999999997
Info: NONBONDED TABLE R-SQUARED SPACING: 0.0625
Info: NONBONDED TABLE SIZE: 705 POINTS
TCL: Running for 1500000 steps
ETITLE: TS BOND ANGLE DIHED IMPRP ELECT VDW BOUNDARY MISC KINETIC TOTAL TEMP POTENTIAL TOTALAVG TEMPAVG PRESSURE GPRESSURE VOLUME PRESSAVG GPRESSAVG
ENERGY: 0 3.8135 9.3075 11.8817 0.0000 -10850.2913 1441.7302 0.0000 0.0000 1801.5366 -7582.0218 302.2923 -9383.5584 -7582.0218 302.2923 -312.9464 -225.8651 30667.1931 -312.9464 -225.8651
ENERGY: 300000 5.8949 11.5158 5.4674 0.0000 -10742.4526 1435.1315 0.0000 0.0000 1820.7324 -7463.7107 305.5132 -9284.4431 -7539.2796 302.8213 -69.1452 -10.2459 30690.0843 -254.3009 -184.8813
ENERGY: 600000 7.0594 12.2419 7.1062 0.0000 -10610.2933 1348.1452 0.0000 0.0000 1800.7603 -7434.9804 302.1620 -9235.7407 -7501.1602 303.1485 -783.7782 -843.7265 30970.5551 -215.7227 -179.4664
ENERGY: 900000 5.1861 9.5508 6.2711 0.0000 -10625.5721 1383.1050 0.0000 0.0000 1802.7998 -7418.6592 302.5042 -9221.4590 -7508.1024 302.4460 -266.4200 -141.8326 30501.4898 -236.0416 -196.3344
ENERGY: 1200000 3.7279 8.3752 7.2736 0.0000 -10907.2168 1508.9196 0.0000 0.0000 1791.3050 -7587.6156 300.5754 -9378.9206 -7522.9075 301.5648 798.1977 840.1213 30017.9096 -212.9540 -163.1705
ENERGY: 1500000 4.0817 12.9697 8.1872 0.0000 -10821.2451 1507.8431 0.0000 0.0000 1813.0430 -7475.1204 304.2230 -9288.1634 -7526.3648 301.2434 518.3409 583.6778 30712.1687 -127.8689 -75.6909
TCL: Running FEP window  18: Lambda1 0.1499999999999997 Lambda2 0.09999999999999969 [dLambda -0.05 ]
TCL: Setting parameter firsttimestep to 0
TCL: Setting parameter alchLambda to 0.1499999999999997
Info: NONBONDED TABLE R-SQUARED SPACING: 0.0625
Info: NONBONDED TABLE SIZE: 705 POINTS
TCL: Setting parameter alchLambda2 to 0.09999999999999969
Info: NONBONDED TABLE R-SQUARED SPACING: 0.0625
Info: NONBONDED TABLE SIZE: 705 POINTS
TCL: Running for 1500000 steps
ETITLE: TS BOND ANGLE DIHED IMPRP ELECT VDW BOUNDARY MISC KINETIC TOTAL TEMP POTENTIAL TOTALAVG TEMPAVG PRESSURE GPRESSURE VOLUME PRESSAVG GPRESSAVG
ENERGY: 0 4.0817 12.9697 8.1872 0.0000 -10821.2456 1507.5001 0.0000 0.0000 1812.1610 -7476.3458 304.0750 -9288.5069 -7476.3458 304.0750 498.4299 576.8088 30712.1687 498.4299 576.8088
ENERGY: 300000 7.3827 9.5756 9.1759 0.0000 -10633.2819 1375.8701 0.0000 0.0000 1764.0017 -7467.2759 295.9940 -9231.2776 -7485.8655 303.7873 -605.1370 -508.9759 30991.7651 -160.7940 -88.6975
ENERGY: 600000 6.0065 8.4332 7.5356 0.0000 -10645.4911 1326.5593 0.0000 0.0000 1772.5291 -7524.4274 297.4249 -9296.9565 -7518.1864 301.7480 -1393.3123 -1340.6497 31197.7647 -266.9215 -199.8014
ENERGY: 900000 3.0180 6.6439 7.5017 0.0000 -10686.3008 1429.2331 0.0000 0.0000 1778.1971 -7461.7070 298.3759 -9239.9040 -7522.9764 300.8088 -229.7638 -141.3979 31265.9474 -176.0126 -113.9955
ENERGY: 1200000 1.9955 7.7674 8.5562 0.0000 -10957.2654 1572.9938 0.0000 0.0000 1659.7681 -7706.1844 278.5039 -9365.9525 -7548.9764 297.8128 753.8135 813.3177 30287.0878 -79.4196 -15.0005
ENERGY: 1500000 3.7480 11.3480 8.2314 0.0000 -10965.6290 1532.5731 0.0000 0.0000 1806.8109 -7602.9174 303.1773 -9409.7283 -7553.5350 298.1183 308.6285 430.7854 30297.2679 -25.7709 43.3740
TCL: Running FEP window  19: Lambda1 0.09999999999999969 Lambda2 0.049999999999999684 [dLambda -0.05 ]
TCL: Setting parameter firsttimestep to 0
TCL: Setting parameter alchLambda to 0.09999999999999969
Info: NONBONDED TABLE R-SQUARED SPACING: 0.0625
Info: NONBONDED TABLE SIZE: 705 POINTS
TCL: Setting parameter alchLambda2 to 0.049999999999999684
Info: NONBONDED TABLE R-SQUARED SPACING: 0.0625
Info: NONBONDED TABLE SIZE: 705 POINTS
TCL: Running for 1500000 steps
ETITLE: TS BOND ANGLE DIHED IMPRP ELECT VDW BOUNDARY MISC KINETIC TOTAL TEMP POTENTIAL TOTALAVG TEMPAVG PRESSURE GPRESSURE VOLUME PRESSAVG GPRESSAVG
ENERGY: 0 3.7480 11.3480 8.2314 0.0000 -10965.6311 1530.6419 0.0000 0.0000 1805.9232 -7605.7385 303.0283 -9411.6617 -7605.7385 303.0283 331.0723 419.1782 30297.2679 331.0723 419.1782
ENERGY: 300000 4.1448 8.1651 6.6262 0.0000 -10877.8732 1513.0334 0.0000 0.0000 1733.2774 -7612.6263 290.8386 -9345.9038 -7598.7517 297.6533 457.4916 542.0693 30267.8201 269.8252 357.8560
ENERGY: 600000 5.7419 9.8763 9.2885 0.0000 -10915.7964 1506.2862 0.0000 0.0000 1814.6761 -7569.9274 304.4970 -9384.6035 -7560.5678 300.6900 305.4887 359.1214 30294.7804 249.4172 328.7995
ENERGY: 900000 4.1724 8.7110 7.2882 0.0000 -10773.7146 1428.9152 0.0000 0.0000 1767.2575 -7557.3703 296.5403 -9324.6278 -7551.1704 300.9864 -93.4247 -64.2713 30518.0972 209.1179 282.9578
ENERGY: 1200000 3.4514 9.3986 5.4510 0.0000 -10765.7660 1460.5444 0.0000 0.0000 1795.0212 -7491.8993 301.1990 -9286.9205 -7535.9922 300.5407 208.1586 236.4390 30422.8442 216.8220 288.8708
ENERGY: 1500000 7.4858 9.7957 6.7699 0.0000 -10765.9113 1469.6208 0.0000 0.0000 1767.2114 -7505.0278 296.5326 -9272.2391 -7524.9061 301.3555 151.1095 209.0747 30274.1787 177.2550 249.8374
TCL: Running FEP window  20: Lambda1 0.049999999999999684 Lambda2 0.0    [dLambda -0.049999999999999684]
TCL: Setting parameter firsttimestep to 0
TCL: Setting parameter alchLambda to 0.049999999999999684
Info: NONBONDED TABLE R-SQUARED SPACING: 0.0625
Info: NONBONDED TABLE SIZE: 705 POINTS
TCL: Setting parameter alchLambda2 to 0.0
Info: NONBONDED TABLE R-SQUARED SPACING: 0.0625
Info: NONBONDED TABLE SIZE: 705 POINTS
TCL: Running for 1500000 steps
ETITLE: TS BOND ANGLE DIHED IMPRP ELECT VDW BOUNDARY MISC KINETIC TOTAL TEMP POTENTIAL TOTALAVG TEMPAVG PRESSURE GPRESSURE VOLUME PRESSAVG GPRESSAVG
ENERGY: 0 7.4858 9.7957 6.7699 0.0000 -10765.9117 1468.2074 0.0000 0.0000 1766.3396 -7507.3133 296.3863 -9273.6529 -7507.3133 296.3863 100.0447 204.0622 30274.1787 100.0447 204.0622
ENERGY: 300000 4.0621 15.4340 7.9997 0.0000 -10771.6979 1424.8732 0.0000 0.0000 1807.5598 -7511.7692 303.3029 -9319.3290 -7503.3232 302.3415 -303.3879 -182.8925 30412.7572 -125.9137 -56.2163
ENERGY: 600000 5.8170 10.5028 7.2119 0.0000 -10711.4654 1445.9876 0.0000 0.0000 1784.1118 -7457.8345 299.3684 -9241.9463 -7518.6102 300.9487 102.5664 185.1293 30560.4825 -181.4586 -123.4656
ENERGY: 900000 1.5583 13.9557 5.9144 0.0000 -10788.1215 1427.9281 0.0000 0.0000 1821.4170 -7517.3480 305.6281 -9338.7650 -7531.7894 300.7165 -360.5838 -212.1722 30772.9153 -238.9489 -176.2974
ENERGY: 1200000 3.6735 10.5332 7.0576 0.0000 -10964.8410 1535.6666 0.0000 0.0000 1721.9384 -7685.9717 288.9359 -9407.9101 -7549.7916 299.1217 108.6137 168.5634 31041.1624 -145.0158 -82.9021
ENERGY: 1500000 4.2456 14.0033 6.8097 0.0000 -10759.7221 1385.8777 0.0000 0.0000 1768.9119 -7579.8738 296.8179 -9348.7857 -7544.8792 299.2377 -700.3195 -652.7611 30866.2223 -181.9980 -121.5418
TCL: Exiting due to exit command.
