Info: SIMULATION PARAMETERS:
Info: TIMESTEP               2
Info: NUMBER OF STEPS        0
Info: STEPS PER CYCLE        10
Info: PERIODIC CELL BASIS 1  30.7605 0 0
Info: PERIODIC CELL BASIS 2  0 31.6802 0
Info: PERIODIC CELL BASIS 3  0 0 31.4085
Info: PERIODIC CELL CENTER   0 0 0
Info: WRAPPING WATERS AROUND PERIODIC BOUNDARIES ON OUTPUT.
Info: WRAPPING ALL CLUSTERS AROUND PERIODIC BOUNDARIES ON OUTPUT.
Info: FIRST LDB TIMESTEP     50
Info: LAST LDB TIMESTEP     -1
Info: HOM BACKGROUND SCALING 1
Info: PME BACKGROUND SCALING 1
Info: MIN ATOMS PER PATCH    40
Info: EMPTY PATCH LOAD       40 ATOMS
Info: VELOCITY FILE          mobley_7326706_equil.vel
Info: CENTER OF MASS MOVING INITIALLY? NO
Info: DIELECTRIC             1
Info: EXCLUDE                SCALED ONE-FOUR
Info: 1-4 ELECTROSTATICS SCALED BY 0.833333
Info: MODIFIED 1-4 VDW PARAMETERS WILL BE USED
Info: DCD FILENAME           mobley_7326706_prod.dcd
Info: DCD FREQUENCY          100000
Info: DCD FIRST STEP         100000
Info: DCD FILE WILL CONTAIN UNIT CELL DATA
Info: XST FILENAME           mobley_7326706_prod.xst
Info: XST FREQUENCY          100000
Info: NO VELOCITY DCD OUTPUT
Info: NO FORCE DCD OUTPUT
Info: OUTPUT FILENAME        mobley_7326706_prod
Info: BINARY OUTPUT FILES WILL BE USED
Info: RESTART FILENAME       mobley_7326706_prod.restart
Info: RESTART FREQUENCY      100000
Info: BINARY RESTART FILES WILL BE USED
Info: CUTOFF                 9
Info: PAIRLIST DISTANCE      11
Info: PAIRLIST SHRINK RATE   0.01
Info: PAIRLIST GROW RATE     0.01
Info: PAIRLIST TRIGGER       0.3
Info: PAIRLISTS PER CYCLE    2
Info: PAIRLISTS ENABLED
Info: MARGIN                 2
Info: HYDROGEN GROUP CUTOFF  2.5
Info: PATCH DIMENSION        15.5
Info: ENERGY OUTPUT STEPS    100000
Info: ENERGY EVALUATION STEPS    100000
Info: OUTPUT ENERGY PRECISION 4
Info: CROSSTERM ENERGY INCLUDED IN DIHEDRAL
Info: TIMING OUTPUT STEPS    1000000
Info: PRESSURE OUTPUT STEPS  100000
Info: ALCHEMICAL FEP ON
Info: FEP CURRENT LAMBDA VALUE     0
Info: FEP COMPARISON LAMBDA VALUE  0.05
Info: FEP INTRA-ALCHEMICAL NON-BONDED INTERACTIONS WILL BE RETAINED
Info: FEP INTRA-ALCHEMICAL BONDED INTERACTIONS WILL BE RETAINED
Info: FEP VDW SHIFTING COEFFICIENT 5
Info: FEP ELEC. ACTIVE FOR ANNIHILATED PARTICLES BETWEEN LAMBDA = 0 AND LAMBDA = 0.5
Info: FEP ELEC. ACTIVE FOR EXNIHILATED PARTICLES BETWEEN LAMBDA = 0.5 AND LAMBDA = 1
Info: FEP VDW ACTIVE FOR ANNIHILATED PARTICLES BETWEEN LAMBDA = 0 AND LAMBDA = 1
Info: FEP VDW ACTIVE FOR EXNIHILATED PARTICLES BETWEEN LAMBDA = 0 AND LAMBDA = 1
Info: FEP BOND ACTIVE FOR ANNIHILATED PARTICLES BETWEEN LAMBDA = 1 AND LAMBDA = 1
Info: FEP BOND ACTIVE FOR EXNIHILATED PARTICLES BETWEEN LAMBDA = 0 AND LAMBDA = 0
Info: LANGEVIN DYNAMICS ACTIVE
Info: LANGEVIN TEMPERATURE   300
Info: LANGEVIN USING BBK INTEGRATOR
Info: LANGEVIN DAMPING COEFFICIENT IS 1 INVERSE PS
Info: LANGEVIN DYNAMICS APPLIED TO HYDROGENS
Info: LANGEVIN PISTON PRESSURE CONTROL ACTIVE
Info:        TARGET PRESSURE IS 1.01325 BAR
Info:     OSCILLATION PERIOD IS 50 FS
Info:             DECAY TIME IS 25 FS
Info:     PISTON TEMPERATURE IS 300 K
Info:       PRESSURE CONTROL IS GROUP-BASED
Info:    INITIAL STRAIN RATE IS 0.000842033 0.000842033 0.000842033
Info:       CELL FLUCTUATION IS ISOTROPIC
Info: PARTICLE MESH EWALD (PME) ACTIVE
Info: PME TOLERANCE               1e-06
Info: PME EWALD COEFFICIENT       0.348832
Info: PME INTERPOLATION ORDER     4
Info: PME GRID DIMENSIONS         32 32 32
Info: PME MAXIMUM GRID SPACING    1
Info: PME CALCULATION WILL BE PERFORMED ON GPU
Info: FULL ELECTROSTATIC EVALUATION FREQUENCY      2
Info: USING VERLET I (r-RESPA) MTS SCHEME.
Info: C1 SPLITTING OF LONG RANGE ELECTROSTATICS
Info: PLACING ATOMS IN PATCHES BY HYDROGEN GROUPS
Info: RIGID BONDS TO HYDROGEN : ALL
Info:         ERROR TOLERANCE : 1e-08
Info:          MAX ITERATIONS : 100
Info: RIGID WATER USING SETTLE ALGORITHM
Info: RANDOM NUMBER SEED     1744072847
Info: USE HYDROGEN BONDS?    NO
Info: Using AMBER format force field!
Info: AMBER PARM FILE        mobley_7326706.prmtop
Info: COORDINATE PDB         mobley_7326706.pdb
Info: Exclusions will be read from PARM file!
Info: SCNB (VDW SCALING)     2
Info: USING ARITHMETIC MEAN TO COMBINE L-J SIGMA PARAMETERS
Info: BINARY COORDINATES     mobley_7326706_equil.coor
Info: SUMMARY OF PARAMETERS:
Info: 13 BONDS
Info: 18 ANGLES
Info:   18 HARMONIC
Info:   0 COSINE-BASED
Info: 13 DIHEDRAL
Info: 0 IMPROPER
Info: 0 CROSSTERM
Info: 0 VDW
Info: 78 VDW_PAIRS
Info: 0 NBTHOLE_PAIRS
Info: To read alchdata from file: mobley_7326706.pdb
Info: To read alchflag data from column: 5
Info: STRUCTURE SUMMARY:
Info: 2954 ATOMS
Info: 2954 BONDS
Info: 49 ANGLES
Info: 72 DIHEDRALS
Info: 0 IMPROPERS
Info: 0 CROSSTERMS
Info: 3055 EXCLUSIONS
Info: 2936 RIGID BONDS
Info: ALCH: 0 ATOMS TO DISAPPEAR IN FINAL STATE
Info: ALCH: 29 ATOMS TO APPEAR IN FINAL STATE
Info: 5926 DEGREES OF FREEDOM
Info: 993 HYDROGEN GROUPS
Info: 4 ATOMS IN LARGEST HYDROGEN GROUP
Info: 993 MIGRATION GROUPS
Info: 4 ATOMS IN LARGEST MIGRATION GROUP
Info: TOTAL MASS = 17916.2 amu
Info: TOTAL CHARGE = -0.000100015 e
Info: MASS DENSITY = 0.972022 g/cm^3
Info: ATOM DENSITY = 0.0965122 atoms/A^3
Info: ADDED 0 IMPLICIT EXCLUSIONS
Info: NONBONDED TABLE R-SQUARED SPACING: 0.0625
Info: NONBONDED TABLE SIZE: 705 POINTS
Info: REMOVING COM VELOCITY 0.0863316 0.155995 -0.130798
Info: Use 3D box decompostion in PME FFT.
Info: Updated CUDA force table with 4096 elements.
Info: Updated CUDA LJ table with 12 x 12 elements.
Info: Found 32 unique exclusion lists needing 116 bytes
TCL: Running for 1500000 steps
ETITLE: TS BOND ANGLE DIHED IMPRP ELECT VDW BOUNDARY MISC KINETIC TOTAL TEMP POTENTIAL TOTALAVG TEMPAVG PRESSURE GPRESSURE VOLUME PRESSAVG GPRESSAVG
ENERGY: 0 9.4197 11.8330 18.8436 0.0000 -10610.3082 1338.2836 0.0000 0.0000 1783.4451 -7448.4833 302.8925 -9231.9284 -7448.4833 302.8925 -596.9603 -501.9099 30607.5377 -596.9603 -501.9099
ENERGY: 300000 6.5090 15.5138 19.1842 0.0000 -10657.9693 1380.4715 0.0000 0.0000 1761.1878 -7475.1030 299.1124 -9236.2908 -7509.0641 297.9115 -293.9524 -280.8808 30430.9403 -92.2592 -29.0690
ENERGY: 600000 5.6971 11.3326 24.6998 0.0000 -10758.4551 1403.3890 0.0000 0.0000 1771.3424 -7541.9942 300.8370 -9313.3367 -7495.7615 300.5699 -66.3055 81.7087 29537.3167 -122.9107 -54.7011
ENERGY: 900000 4.3357 14.3215 19.7023 0.0000 -10947.2199 1575.2304 0.0000 0.0000 1746.1072 -7587.5228 296.5512 -9333.6300 -7521.1976 299.6620 971.5695 1007.5855 29936.1984 -102.2142 -39.5680
ENERGY: 1200000 8.2046 10.9770 19.2353 0.0000 -10789.0762 1429.0944 0.0000 0.0000 1762.8660 -7558.6989 299.3974 -9321.5649 -7526.4926 300.0766 -202.7323 -100.3461 29812.3900 -48.3538 17.6034
ENERGY: 1500000 6.6179 10.0532 23.0291 0.0000 -10748.3870 1391.5261 0.0000 0.0000 1756.5362 -7560.6245 298.3224 -9317.1607 -7531.9027 299.8328 -731.4490 -686.4391 30418.5527 -156.3864 -95.1395
TCL: Running FEP window   2: Lambda1 0.05   Lambda2 0.1    [dLambda 0.05  ]
TCL: Setting parameter firsttimestep to 0
TCL: Setting parameter alchLambda to 0.05
Info: NONBONDED TABLE R-SQUARED SPACING: 0.0625
Info: NONBONDED TABLE SIZE: 705 POINTS
TCL: Setting parameter alchLambda2 to 0.1
Info: NONBONDED TABLE R-SQUARED SPACING: 0.0625
Info: NONBONDED TABLE SIZE: 705 POINTS
TCL: Running for 1500000 steps
ETITLE: TS BOND ANGLE DIHED IMPRP ELECT VDW BOUNDARY MISC KINETIC TOTAL TEMP POTENTIAL TOTALAVG TEMPAVG PRESSURE GPRESSURE VOLUME PRESSAVG GPRESSAVG
ENERGY: 0 6.6179 10.0532 23.0291 0.0000 -10748.3871 1400.8863 0.0000 0.0000 1755.6469 -7552.1537 298.1713 -9307.8005 -7552.1537 298.1713 -752.4332 -664.8057 30418.5527 -752.4332 -664.8057
ENERGY: 300000 3.7806 13.6824 20.0071 0.0000 -10827.8601 1523.5773 0.0000 0.0000 1735.7904 -7531.0224 294.7990 -9266.8127 -7527.0327 297.1000 824.2306 904.3800 29792.0618 -149.8371 -81.5345
ENERGY: 600000 6.7766 11.8676 16.8300 0.0000 -10835.8432 1478.6016 0.0000 0.0000 1800.2935 -7521.4739 305.7539 -9321.7675 -7518.3344 298.5804 231.3687 275.3903 30125.9658 -33.5488 35.1482
ENERGY: 900000 4.5252 12.2639 19.6511 0.0000 -10700.1580 1417.7527 0.0000 0.0000 1774.0391 -7471.9261 301.2950 -9245.9652 -7519.7406 297.6941 -277.8001 -253.3282 30298.8292 -28.3244 36.0555
ENERGY: 1200000 5.0989 14.0002 17.2530 0.0000 -10859.0844 1551.2844 0.0000 0.0000 1742.0392 -7529.4086 295.8603 -9271.4479 -7516.8722 298.2389 697.9377 816.9856 30262.8683 42.0544 110.9908
ENERGY: 1500000 6.9373 12.3367 20.5781 0.0000 -10701.7527 1402.0373 0.0000 0.0000 1835.1603 -7424.7029 311.6756 -9259.8632 -7521.2053 298.9327 -315.5191 -249.5190 30180.5501 50.5971 115.4518
TCL: Running FEP window   3: Lambda1 0.1    Lambda2 0.15000000000000002 [dLambda 0.05000000000000002]
TCL: Setting parameter firsttimestep to 0
TCL: Setting parameter alchLambda to 0.1
Info: NONBONDED TABLE R-SQUARED SPACING: 0.0625
Info: NONBONDED TABLE SIZE: 705 POINTS
TCL: Setting parameter alchLambda2 to 0.15000000000000002
Info: NONBONDED TABLE R-SQUARED SPACING: 0.0625
Info: NONBONDED TABLE SIZE: 705 POINTS
TCL: Running for 1500000 steps
ETITLE: TS BOND ANGLE DIHED IMPRP ELECT VDW BOUNDARY MISC KINETIC TOTAL TEMP POTENTIAL TOTALAVG TEMPAVG PRESSURE GPRESSURE VOLUME PRESSAVG GPRESSAVG
ENERGY: 0 6.9373 12.3367 20.5781 0.0000 -10701.7530 1404.1446 0.0000 0.0000 1834.3106 -7423.4455 311.5312 -9257.7561 -7423.4455 311.5312 -309.7114 -235.0884 30180.5501 -309.7114 -235.0884
ENERGY: 300000 4.6504 18.4772 17.9811 0.0000 -10801.9738 1404.4330 0.0000 0.0000 1736.8182 -7619.6138 294.9736 -9356.4320 -7518.9719 303.2436 -571.7136 -480.4095 30158.9527 -265.2418 -184.4704
ENERGY: 600000 5.0992 21.6605 18.6856 0.0000 -10760.3550 1454.2664 0.0000 0.0000 1738.1676 -7522.4758 295.2027 -9260.6434 -7506.9993 302.7023 180.2892 231.8700 30193.3140 -357.3092 -287.6665
ENERGY: 900000 4.4246 16.1310 28.5539 0.0000 -10688.6098 1384.7894 0.0000 0.0000 1767.3341 -7487.3767 300.1563 -9254.7109 -7505.7418 302.7210 -380.8953 -298.4402 30507.2144 -341.1293 -273.9344
ENERGY: 1200000 3.0321 11.8488 18.8685 0.0000 -10853.6245 1471.1888 0.0000 0.0000 1723.5190 -7625.1674 292.7149 -9348.6864 -7522.1244 301.0096 172.2479 286.9742 30028.0638 -289.1543 -219.1455
ENERGY: 1500000 4.3946 18.3930 22.4000 0.0000 -10765.0412 1452.4827 0.0000 0.0000 1821.9334 -7445.4375 309.4292 -9267.3709 -7518.8348 301.6267 229.8266 280.0612 30422.0587 -170.2887 -102.9587
TCL: Running FEP window   4: Lambda1 0.15000000000000002 Lambda2 0.2    [dLambda 0.04999999999999999]
TCL: Setting parameter firsttimestep to 0
TCL: Setting parameter alchLambda to 0.15000000000000002
Info: NONBONDED TABLE R-SQUARED SPACING: 0.0625
Info: NONBONDED TABLE SIZE: 705 POINTS
TCL: Setting parameter alchLambda2 to 0.2
Info: NONBONDED TABLE R-SQUARED SPACING: 0.0625
Info: NONBONDED TABLE SIZE: 705 POINTS
TCL: Running for 1500000 steps
ETITLE: TS BOND ANGLE DIHED IMPRP ELECT VDW BOUNDARY MISC KINETIC TOTAL TEMP POTENTIAL TOTALAVG TEMPAVG PRESSURE GPRESSURE VOLUME PRESSAVG GPRESSAVG
ENERGY: 0 4.3946 18.3930 22.4000 0.0000 -10765.0414 1454.3868 0.0000 0.0000 1821.0443 -7444.4227 309.2782 -9265.4670 -7444.4227 309.2782 212.8763 291.7245 30422.0587 212.8763 291.7245
ENERGY: 300000 3.9421 14.7782 19.1610 0.0000 -10678.4034 1425.1385 0.0000 0.0000 1756.1831 -7459.2005 298.2624 -9215.3836 -7505.6046 302.0771 229.6230 320.1601 29999.3814 -135.3471 -33.9914
ENERGY: 600000 4.7148 19.1064 20.3485 0.0000 -10790.6949 1448.7764 0.0000 0.0000 1742.7005 -7555.0482 295.9726 -9297.7487 -7532.4619 297.8583 59.7558 80.7990 30536.1874 13.2746 86.4882
ENERGY: 900000 6.2618 15.0770 19.0804 0.0000 -10734.2685 1445.0873 0.0000 0.0000 1725.9196 -7522.8424 293.1226 -9248.7620 -7537.0975 296.9496 29.0020 50.1528 30512.7318 -12.1011 52.1182
ENERGY: 1200000 4.9266 13.7266 19.5155 0.0000 -10849.7112 1510.2632 0.0000 0.0000 1766.2260 -7535.0533 299.9681 -9301.2792 -7535.2465 298.3528 368.9357 436.0242 30148.1742 -22.1647 35.0477
ENERGY: 1500000 4.4861 15.9125 22.5398 0.0000 -10752.6715 1393.5283 0.0000 0.0000 1786.9123 -7529.2924 303.4813 -9316.2048 -7527.2127 299.3306 -805.2726 -694.5770 30917.5584 -87.8047 -24.4157
TCL: Running FEP window   5: Lambda1 0.2    Lambda2 0.25   [dLambda 0.04999999999999999]
TCL: Setting parameter firsttimestep to 0
TCL: Setting parameter alchLambda to 0.2
Info: NONBONDED TABLE R-SQUARED SPACING: 0.0625
Info: NONBONDED TABLE SIZE: 705 POINTS
TCL: Setting parameter alchLambda2 to 0.25
Info: NONBONDED TABLE R-SQUARED SPACING: 0.0625
Info: NONBONDED TABLE SIZE: 705 POINTS
TCL: Running for 1500000 steps
ETITLE: TS BOND ANGLE DIHED IMPRP ELECT VDW BOUNDARY MISC KINETIC TOTAL TEMP POTENTIAL TOTALAVG TEMPAVG PRESSURE GPRESSURE VOLUME PRESSAVG GPRESSAVG
ENERGY: 0 4.4861 15.9125 22.5398 0.0000 -10752.6710 1393.0720 0.0000 0.0000 1786.0557 -7530.6049 303.3358 -9316.6606 -7530.6049 303.3358 -777.2171 -688.2117 30917.5584 -777.2171 -688.2117
ENERGY: 300000 4.7194 13.3223 24.5283 0.0000 -10872.8626 1458.1985 0.0000 0.0000 1741.3409 -7630.7533 295.7417 -9372.0941 -7557.9962 299.0307 -106.8985 -34.0967 30139.4803 -111.5528 -25.4143
ENERGY: 600000 8.2449 9.7554 18.9139 0.0000 -10790.1088 1470.8192 0.0000 0.0000 1768.9329 -7513.4426 300.4278 -9282.3755 -7520.4060 301.0446 -149.1243 -77.7791 30785.6761 -206.4256 -118.1453
ENERGY: 900000 2.7582 12.9347 19.5951 0.0000 -10734.7362 1443.9409 0.0000 0.0000 1782.6300 -7472.8773 302.7540 -9255.5073 -7514.1273 301.3334 267.3101 294.8513 30208.3659 -41.2877 31.1112
ENERGY: 1200000 8.7500 13.2266 24.9991 0.0000 -10864.9372 1452.1483 0.0000 0.0000 1819.3824 -7546.4308 308.9959 -9365.8132 -7526.2858 301.6380 170.5164 246.3514 29833.4975 -34.6470 31.0593
ENERGY: 1500000 6.8156 14.6637 17.6755 0.0000 -10762.0392 1444.3815 0.0000 0.0000 1716.5939 -7561.9091 291.5388 -9278.5030 -7527.4338 301.4103 -107.7973 -79.7297 30814.4431 -100.9658 -37.4783
TCL: Running FEP window   6: Lambda1 0.25   Lambda2 0.3    [dLambda 0.04999999999999999]
TCL: Setting parameter firsttimestep to 0
TCL: Setting parameter alchLambda to 0.25
Info: NONBONDED TABLE R-SQUARED SPACING: 0.0625
Info: NONBONDED TABLE SIZE: 705 POINTS
TCL: Setting parameter alchLambda2 to 0.3
Info: NONBONDED TABLE R-SQUARED SPACING: 0.0625
Info: NONBONDED TABLE SIZE: 705 POINTS
TCL: Running for 1500000 steps
ETITLE: TS BOND ANGLE DIHED IMPRP ELECT VDW BOUNDARY MISC KINETIC TOTAL TEMP POTENTIAL TOTALAVG TEMPAVG PRESSURE GPRESSURE VOLUME PRESSAVG GPRESSAVG
ENERGY: 0 6.8156 14.6637 17.6755 0.0000 -10762.0388 1444.3352 0.0000 0.0000 1715.7276 -7562.8212 291.3916 -9278.5488 -7562.8212 291.3916 -151.2381 -71.4876 30814.4431 -151.2381 -71.4876
ENERGY: 300000 3.9373 14.0929 19.0795 0.0000 -10916.2592 1567.5383 0.0000 0.0000 1744.8073 -7566.8039 296.3304 -9311.6112 -7534.6780 299.2863 1291.5994 1375.7387 29699.3039 381.4023 448.6010
ENERGY: 600000 11.2670 10.8995 23.7527 0.0000 -10810.7830 1493.5155 0.0000 0.0000 1803.2376 -7468.1107 306.2539 -9271.3483 -7529.9480 301.3302 427.0367 450.4144 30679.3555 194.2551 254.5811
ENERGY: 900000 8.6003 13.2318 24.5556 0.0000 -10473.2189 1255.5388 0.0000 0.0000 1752.2585 -7419.0338 297.5959 -9171.2923 -7521.4377 301.9573 -1222.2986 -1155.8611 30597.2567 97.5193 165.9860
ENERGY: 1200000 5.4376 14.2796 20.1534 0.0000 -10710.1306 1422.9619 0.0000 0.0000 1791.5021 -7455.7961 304.2608 -9247.2982 -7514.4638 302.0400 -128.1391 -9.5519 30466.8566 -9.2300 64.4077
ENERGY: 1500000 8.1984 8.3389 24.2536 0.0000 -10761.5395 1408.3718 0.0000 0.0000 1805.0855 -7507.2914 306.5678 -9312.3768 -7515.1166 301.6628 -384.8942 -325.5364 30121.0070 40.9051 108.6354
TCL: Running FEP window   7: Lambda1 0.3    Lambda2 0.35   [dLambda 0.04999999999999999]
TCL: Setting parameter firsttimestep to 0
TCL: Setting parameter alchLambda to 0.3
Info: NONBONDED TABLE R-SQUARED SPACING: 0.0625
Info: NONBONDED TABLE SIZE: 705 POINTS
TCL: Setting parameter alchLambda2 to 0.35
Info: NONBONDED TABLE R-SQUARED SPACING: 0.0625
Info: NONBONDED TABLE SIZE: 705 POINTS
TCL: Running for 1500000 steps
ETITLE: TS BOND ANGLE DIHED IMPRP ELECT VDW BOUNDARY MISC KINETIC TOTAL TEMP POTENTIAL TOTALAVG TEMPAVG PRESSURE GPRESSURE VOLUME PRESSAVG GPRESSAVG
ENERGY: 0 8.1984 8.3389 24.2536 0.0000 -10761.5379 1409.3760 0.0000 0.0000 1804.2499 -7507.1212 306.4259 -9311.3711 -7507.1212 306.4259 -418.6660 -313.0514 30121.0070 -418.6660 -313.0514
ENERGY: 300000 3.5722 17.0599 24.2275 0.0000 -10584.0302 1360.8358 0.0000 0.0000 1767.9183 -7410.4165 300.2555 -9178.3348 -7482.6641 301.3711 -400.2772 -337.0400 30753.3579 -346.8491 -277.5907
ENERGY: 600000 4.9037 11.0045 17.0455 0.0000 -10828.1394 1489.8164 0.0000 0.0000 1760.8891 -7544.4801 299.0617 -9305.3693 -7494.9465 303.6081 350.5107 375.7034 30312.7255 -31.2068 25.6141
ENERGY: 900000 7.3333 11.1672 21.6863 0.0000 -10880.6840 1533.0756 0.0000 0.0000 1752.5684 -7554.8532 297.6485 -9307.4216 -7517.7046 301.6116 879.8371 924.0446 30374.9106 99.3170 151.4844
ENERGY: 1200000 7.6539 17.3700 23.8278 0.0000 -10862.0479 1527.5004 0.0000 0.0000 1820.3134 -7465.3824 309.1540 -9285.6958 -7517.9282 301.5306 521.6369 589.3127 30591.5973 133.8256 190.8305
ENERGY: 1500000 5.6663 9.8994 19.9675 0.0000 -10588.1428 1331.1053 0.0000 0.0000 1702.8510 -7518.6534 289.2047 -9221.5044 -7521.0797 299.9055 -767.2188 -641.6888 30281.0413 -18.9815 39.5035
TCL: Running FEP window   8: Lambda1 0.35   Lambda2 0.39999999999999997 [dLambda 0.04999999999999999]
TCL: Setting parameter firsttimestep to 0
TCL: Setting parameter alchLambda to 0.35
Info: NONBONDED TABLE R-SQUARED SPACING: 0.0625
Info: NONBONDED TABLE SIZE: 705 POINTS
TCL: Setting parameter alchLambda2 to 0.39999999999999997
Info: NONBONDED TABLE R-SQUARED SPACING: 0.0625
Info: NONBONDED TABLE SIZE: 705 POINTS
TCL: Running for 1500000 steps
ETITLE: TS BOND ANGLE DIHED IMPRP ELECT VDW BOUNDARY MISC KINETIC TOTAL TEMP POTENTIAL TOTALAVG TEMPAVG PRESSURE GPRESSURE VOLUME PRESSAVG GPRESSAVG
ENERGY: 0 5.6663 9.8994 19.9675 0.0000 -10588.1426 1332.9980 0.0000 0.0000 1702.0044 -7517.6070 289.0609 -9219.6114 -7517.6070 289.0609 -717.4846 -618.8216 30281.0413 -717.4846 -618.8216
ENERGY: 300000 7.0859 11.1484 20.5278 0.0000 -10732.5464 1413.4730 0.0000 0.0000 1762.4755 -7517.8358 299.3311 -9280.3113 -7532.6509 299.9405 -84.9659 -36.5573 30219.5499 -265.6352 -202.1343
ENERGY: 600000 4.1800 12.7361 18.4131 0.0000 -10795.4849 1447.0048 0.0000 0.0000 1709.1442 -7604.0068 290.2735 -9313.1510 -7545.2365 297.3812 -104.5235 47.7808 30042.2352 -243.0900 -170.6498
ENERGY: 900000 1.6373 10.2248 20.1266 0.0000 -10711.6814 1360.6527 0.0000 0.0000 1746.6887 -7572.3513 296.6499 -9319.0400 -7544.6416 296.8868 -432.5886 -334.6563 29834.5181 -254.9620 -179.7327
ENERGY: 1200000 2.6507 11.3041 24.0262 0.0000 -10874.9173 1520.2298 0.0000 0.0000 1774.4060 -7542.3006 301.3573 -9316.7065 -7544.1871 297.0244 659.4108 750.6450 30012.7076 -141.5058 -62.8946
ENERGY: 1500000 5.4496 10.1799 22.7518 0.0000 -10825.2941 1476.5734 0.0000 0.0000 1762.0368 -7548.3027 299.2566 -9310.3395 -7537.0873 297.7749 690.4732 744.0701 29973.7363 -116.0072 -38.0431
TCL: Running FEP window   9: Lambda1 0.39999999999999997 Lambda2 0.44999999999999996 [dLambda 0.04999999999999999]
TCL: Setting parameter firsttimestep to 0
TCL: Setting parameter alchLambda to 0.39999999999999997
Info: NONBONDED TABLE R-SQUARED SPACING: 0.0625
Info: NONBONDED TABLE SIZE: 705 POINTS
TCL: Setting parameter alchLambda2 to 0.44999999999999996
Info: NONBONDED TABLE R-SQUARED SPACING: 0.0625
Info: NONBONDED TABLE SIZE: 705 POINTS
TCL: Running for 1500000 steps
ETITLE: TS BOND ANGLE DIHED IMPRP ELECT VDW BOUNDARY MISC KINETIC TOTAL TEMP POTENTIAL TOTALAVG TEMPAVG PRESSURE GPRESSURE VOLUME PRESSAVG GPRESSAVG
ENERGY: 0 5.4496 10.1799 22.7518 0.0000 -10825.2941 1477.2177 0.0000 0.0000 1761.1814 -7548.5138 299.1113 -9309.6952 -7548.5138 299.1113 675.5563 764.4856 29973.7363 675.5563 764.4856
ENERGY: 300000 7.2597 9.0315 24.3648 0.0000 -10713.7848 1366.1451 0.0000 0.0000 1740.4510 -7566.5326 295.5906 -9306.9837 -7541.2469 296.4916 -579.1487 -540.2915 30361.6292 -84.9857 -8.5804
ENERGY: 600000 4.9490 11.9372 21.7919 0.0000 -10903.2226 1479.1128 0.0000 0.0000 1720.8742 -7664.5574 292.2657 -9385.4316 -7553.9726 297.0417 349.9352 384.4760 30127.5231 -52.8401 4.5329
ENERGY: 900000 8.2945 12.5833 15.8154 0.0000 -10809.9608 1448.5612 0.0000 0.0000 1725.8482 -7598.8582 293.1105 -9324.7064 -7557.4812 296.6202 92.8953 146.5419 29948.7202 -32.4286 24.0704
ENERGY: 1200000 5.0881 19.0315 28.4839 0.0000 -10775.0167 1459.4839 0.0000 0.0000 1762.2769 -7500.6525 299.2974 -9262.9294 -7557.1738 296.6720 13.5556 128.2527 30622.8038 -140.2458 -86.1306
ENERGY: 1500000 6.3183 9.7500 22.2033 0.0000 -10812.7961 1421.5583 0.0000 0.0000 1786.9227 -7566.0436 303.4831 -9352.9663 -7553.8533 297.6147 -285.2494 -242.7487 30435.1458 -70.8326 -18.3586
TCL: Running FEP window  10: Lambda1 0.44999999999999996 Lambda2 0.49999999999999994 [dLambda 0.04999999999999999]
TCL: Setting parameter firsttimestep to 0
TCL: Setting parameter alchLambda to 0.44999999999999996
Info: NONBONDED TABLE R-SQUARED SPACING: 0.0625
Info: NONBONDED TABLE SIZE: 705 POINTS
TCL: Setting parameter alchLambda2 to 0.49999999999999994
Info: NONBONDED TABLE R-SQUARED SPACING: 0.0625
Info: NONBONDED TABLE SIZE: 705 POINTS
TCL: Running for 1500000 steps
ETITLE: TS BOND ANGLE DIHED IMPRP ELECT VDW BOUNDARY MISC KINETIC TOTAL TEMP POTENTIAL TOTALAVG TEMPAVG PRESSURE GPRESSURE VOLUME PRESSAVG GPRESSAVG
ENERGY: 0 6.3183 9.7500 22.2033 0.0000 -10812.7962 1420.7239 0.0000 0.0000 1786.0338 -7567.7671 303.3321 -9353.8009 -7567.7671 303.3321 -315.1267 -237.8590 30435.1458 -315.1267 -237.8590
ENERGY: 300000 7.3700 11.2908 20.1755 0.0000 -10774.8069 1431.4079 0.0000 0.0000 1770.0294 -7534.5333 300.6140 -9304.5627 -7516.8752 302.5900 -15.4434 52.6489 30263.0217 -320.6788 -263.7196
ENERGY: 600000 6.6777 17.6525 23.7705 0.0000 -10660.4856 1363.4287 0.0000 0.0000 1814.4840 -7434.4722 308.1640 -9248.9562 -7508.2458 302.7651 -385.8010 -309.5384 30296.9553 -196.0232 -150.5456
ENERGY: 900000 6.0004 10.0995 22.0206 0.0000 -10679.9914 1354.3451 0.0000 0.0000 1721.1950 -7566.3309 292.3202 -9287.5259 -7518.8137 301.2864 -413.7567 -407.7586 30082.3840 -208.7807 -162.4222
ENERGY: 1200000 3.3289 12.0613 20.4038 0.0000 -10735.6821 1425.7953 0.0000 0.0000 1778.0732 -7496.0196 301.9801 -9274.0928 -7518.4408 301.2176 325.0171 381.5895 29838.4168 -98.8813 -47.0414
ENERGY: 1500000 6.2510 14.7582 20.5356 0.0000 -10721.3109 1512.3864 0.0000 0.0000 1833.4512 -7333.9285 311.3853 -9167.3797 -7507.4579 301.5447 972.2066 1036.3295 30681.4931 -18.6642 39.5611
TCL: Running FEP window  11: Lambda1 0.49999999999999994 Lambda2 0.5499999999999999 [dLambda 0.04999999999999999]
TCL: Setting parameter firsttimestep to 0
TCL: Setting parameter alchLambda to 0.49999999999999994
Info: NONBONDED TABLE R-SQUARED SPACING: 0.0625
Info: NONBONDED TABLE SIZE: 705 POINTS
TCL: Setting parameter alchLambda2 to 0.5499999999999999
Info: NONBONDED TABLE R-SQUARED SPACING: 0.0625
Info: NONBONDED TABLE SIZE: 705 POINTS
TCL: Running for 1500000 steps
ETITLE: TS BOND ANGLE DIHED IMPRP ELECT VDW BOUNDARY MISC KINETIC TOTAL TEMP POTENTIAL TOTALAVG TEMPAVG PRESSURE GPRESSURE VOLUME PRESSAVG GPRESSAVG
ENERGY: 0 6.2510 14.7582 20.5356 0.0000 -10721.3119 1512.9670 0.0000 0.0000 1832.6062 -7334.1939 311.2418 -9166.8001 -7334.1939 311.2418 979.7055 1053.2204 30681.4931 979.7055 1053.2204
ENERGY: 300000 6.5965 12.4106 22.5442 0.0000 -10713.3770 1367.8345 0.0000 0.0000 1752.6994 -7551.2918 297.6708 -9303.9912 -7487.8509 302.7238 -684.0967 -622.2746 30782.8444 -342.8507 -276.0541
ENERGY: 600000 2.9255 12.6316 22.8095 0.0000 -10737.0215 1378.0863 0.0000 0.0000 1779.3209 -7541.2477 302.1920 -9320.5686 -7524.5368 300.7369 -544.0397 -466.1343 30736.6565 -370.1878 -298.2150
ENERGY: 900000 6.4173 10.0537 19.5369 0.0000 -10609.9159 1351.4826 0.0000 0.0000 1772.4080 -7450.0175 301.0180 -9222.4254 -7512.2177 301.3273 -420.4195 -374.0094 30638.8987 -287.5186 -224.5564
ENERGY: 1200000 3.8135 15.8273 22.7405 0.0000 -10716.5673 1388.1101 0.0000 0.0000 1727.0332 -7559.0426 293.3117 -9286.0758 -7509.1367 301.3099 -574.2787 -510.2074 30608.6104 -270.5485 -205.7244
ENERGY: 1500000 6.5803 12.7391 18.0361 0.0000 -10708.2179 1418.8028 0.0000 0.0000 1715.3560 -7536.7036 291.3285 -9252.0596 -7511.3189 300.6300 -196.6817 -111.0892 30569.6672 -236.6821 -172.2919
TCL: Running FEP window  12: Lambda1 0.5499999999999999 Lambda2 0.6    [dLambda 0.050000000000000044]
TCL: Setting parameter firsttimestep to 0
TCL: Setting parameter alchLambda to 0.5499999999999999
Info: NONBONDED TABLE R-SQUARED SPACING: 0.0625
Info: NONBONDED TABLE SIZE: 705 POINTS
TCL: Setting parameter alchLambda2 to 0.6
Info: NONBONDED TABLE R-SQUARED SPACING: 0.0625
Info: NONBONDED TABLE SIZE: 705 POINTS
TCL: Running for 1500000 steps
ETITLE: TS BOND ANGLE DIHED IMPRP ELECT VDW BOUNDARY MISC KINETIC TOTAL TEMP POTENTIAL TOTALAVG TEMPAVG PRESSURE GPRESSURE VOLUME PRESSAVG GPRESSAVG
ENERGY: 0 6.5803 12.7391 18.0361 0.0000 -10708.6250 1420.8832 0.0000 0.0000 1714.4929 -7535.8934 291.1819 -9250.3863 -7535.8934 291.1819 -164.5519 -83.5705 30569.6672 -164.5519 -83.5705
ENERGY: 300000 11.5195 19.0043 22.2127 0.0000 -10792.6473 1502.6638 0.0000 0.0000 1738.7318 -7498.5152 295.2986 -9237.2470 -7545.8202 294.9031 701.5383 759.9284 30242.7417 141.9639 219.0472
ENERGY: 600000 6.1103 15.6166 20.9383 0.0000 -10866.8679 1499.7767 0.0000 0.0000 1717.8604 -7606.5656 291.7539 -9324.4259 -7542.2125 297.0664 378.5235 473.2113 30202.1700 82.7782 164.8703
ENERGY: 900000 4.6952 9.6804 24.5135 0.0000 -10826.2343 1488.6553 0.0000 0.0000 1748.4948 -7550.1952 296.9567 -9298.6900 -7538.4002 298.2311 650.5538 664.1078 30207.7385 226.1283 280.2193
ENERGY: 1200000 6.9129 12.9034 25.0660 0.0000 -10803.7881 1393.2085 0.0000 0.0000 1745.4337 -7620.2635 296.4368 -9365.6973 -7536.2546 299.2047 -612.5054 -586.2769 30842.1944 136.8067 194.4505
ENERGY: 1500000 3.9049 11.3281 17.1775 0.0000 -10755.3230 1470.8571 0.0000 0.0000 1762.2362 -7489.8192 299.2904 -9252.0554 -7524.6445 299.2289 271.5829 371.6008 30565.7433 96.6097 160.2908
TCL: Running FEP window  13: Lambda1 0.6    Lambda2 0.65   [dLambda 0.050000000000000044]
TCL: Setting parameter firsttimestep to 0
TCL: Setting parameter alchLambda to 0.6
Info: NONBONDED TABLE R-SQUARED SPACING: 0.0625
Info: NONBONDED TABLE SIZE: 705 POINTS
TCL: Setting parameter alchLambda2 to 0.65
Info: NONBONDED TABLE R-SQUARED SPACING: 0.0625
Info: NONBONDED TABLE SIZE: 705 POINTS
TCL: Running for 1500000 steps
ETITLE: TS BOND ANGLE DIHED IMPRP ELECT VDW BOUNDARY MISC KINETIC TOTAL TEMP POTENTIAL TOTALAVG TEMPAVG PRESSURE GPRESSURE VOLUME PRESSAVG GPRESSAVG
ENERGY: 0 3.9049 11.3281 17.1775 0.0000 -10756.4658 1471.4495 0.0000 0.0000 1761.3575 -7491.2484 299.1412 -9252.6058 -7491.2484 299.1412 300.8081 391.8562 30565.7433 300.8081 391.8562
ENERGY: 300000 9.1170 8.8885 26.0089 0.0000 -10790.3958 1406.1763 0.0000 0.0000 1728.8541 -7611.3510 293.6210 -9340.2052 -7552.8164 297.0017 -328.9413 -219.7870 30266.6394 -164.2929 -69.7709
ENERGY: 600000 3.3945 10.4557 20.6530 0.0000 -10844.0317 1472.4093 0.0000 0.0000 1740.2281 -7596.8911 295.5527 -9337.1192 -7555.0626 297.4262 71.3615 197.3851 30461.7712 -141.6126 -71.6476
ENERGY: 900000 5.3775 12.4144 24.9283 0.0000 -10720.7890 1409.7642 0.0000 0.0000 1796.8527 -7471.4520 305.1696 -9268.3047 -7517.1536 299.0201 -16.9794 35.4845 30337.4225 -147.3500 -77.3255
ENERGY: 1200000 8.9195 15.8688 25.2072 0.0000 -10689.9962 1386.6713 0.0000 0.0000 1746.9096 -7506.4198 296.6874 -9253.3294 -7528.0294 298.1686 -385.6794 -326.9279 30967.7992 -115.8762 -54.3391
ENERGY: 1500000 3.4928 9.5584 22.0718 0.0000 -10844.5361 1455.7385 0.0000 0.0000 1763.5486 -7590.1261 299.5133 -9353.6747 -7530.3499 298.4774 318.6561 426.7934 30305.5139 -10.5336 50.3665
TCL: Running FEP window  14: Lambda1 0.65   Lambda2 0.7000000000000001 [dLambda 0.050000000000000044]
TCL: Setting parameter firsttimestep to 0
TCL: Setting parameter alchLambda to 0.65
Info: NONBONDED TABLE R-SQUARED SPACING: 0.0625
Info: NONBONDED TABLE SIZE: 705 POINTS
TCL: Setting parameter alchLambda2 to 0.7000000000000001
Info: NONBONDED TABLE R-SQUARED SPACING: 0.0625
Info: NONBONDED TABLE SIZE: 705 POINTS
TCL: Running for 1500000 steps
ETITLE: TS BOND ANGLE DIHED IMPRP ELECT VDW BOUNDARY MISC KINETIC TOTAL TEMP POTENTIAL TOTALAVG TEMPAVG PRESSURE GPRESSURE VOLUME PRESSAVG GPRESSAVG
ENERGY: 0 3.4928 9.5584 22.0718 0.0000 -10844.1675 1455.0899 0.0000 0.0000 1762.6994 -7591.2553 299.3691 -9353.9546 -7591.2553 299.3691 344.7774 435.2207 30305.5139 344.7774 435.2207
ENERGY: 300000 6.6988 12.9656 18.8053 0.0000 -10796.9162 1432.2109 0.0000 0.0000 1753.4515 -7572.7841 297.7985 -9326.2356 -7547.8765 301.2261 340.9535 397.9880 29941.9558 126.8393 178.0751
ENERGY: 600000 7.0085 9.7499 18.4727 0.0000 -10696.7467 1377.8957 0.0000 0.0000 1788.9669 -7494.6529 303.8303 -9283.6199 -7531.0297 302.4377 -26.6944 48.5869 30133.5264 -78.2377 -23.6767
ENERGY: 900000 4.3237 20.7513 21.9844 0.0000 -10723.3005 1360.5315 0.0000 0.0000 1752.2451 -7563.4644 297.5936 -9315.7095 -7543.2024 301.1474 -606.9901 -561.3482 30457.8596 -120.1481 -66.3716
ENERGY: 1200000 3.2391 14.3102 21.2298 0.0000 -10864.8106 1480.0263 0.0000 0.0000 1734.8162 -7611.1890 294.6336 -9346.0052 -7544.0408 300.1377 241.5428 339.5595 30564.8411 -18.3256 39.7572
ENERGY: 1500000 7.3657 11.8625 31.3499 0.0000 -10855.0788 1467.6649 0.0000 0.0000 1758.5566 -7578.2791 298.6655 -9336.8357 -7539.1953 300.1612 53.4456 97.1603 30442.8150 3.5550 55.5030
TCL: Running FEP window  15: Lambda1 0.7000000000000001 Lambda2 0.7500000000000001 [dLambda 0.050000000000000044]
TCL: Setting parameter firsttimestep to 0
TCL: Setting parameter alchLambda to 0.7000000000000001
Info: NONBONDED TABLE R-SQUARED SPACING: 0.0625
Info: NONBONDED TABLE SIZE: 705 POINTS
TCL: Setting parameter alchLambda2 to 0.7500000000000001
Info: NONBONDED TABLE R-SQUARED SPACING: 0.0625
Info: NONBONDED TABLE SIZE: 705 POINTS
TCL: Running for 1500000 steps
ETITLE: TS BOND ANGLE DIHED IMPRP ELECT VDW BOUNDARY MISC KINETIC TOTAL TEMP POTENTIAL TOTALAVG TEMPAVG PRESSURE GPRESSURE VOLUME PRESSAVG GPRESSAVG
ENERGY: 0 7.3657 11.8625 31.3499 0.0000 -10856.4721 1467.7003 0.0000 0.0000 1757.6771 -7580.5166 298.5162 -9338.1937 -7580.5166 298.5162 20.2240 110.9630 30442.8150 20.2240 110.9630
ENERGY: 300000 6.1373 10.8570 18.6982 0.0000 -10702.8412 1326.0683 0.0000 0.0000 1786.8818 -7554.1988 303.4761 -9341.0805 -7548.0818 301.7309 -761.9922 -759.7440 30460.2129 -317.2965 -245.9279
ENERGY: 600000 7.2671 13.7171 19.9026 0.0000 -10864.9802 1510.3509 0.0000 0.0000 1787.5577 -7526.1848 303.5909 -9313.7425 -7530.3761 300.6511 646.0120 604.4117 30576.2744 -15.2708 43.4269
ENERGY: 900000 9.0348 11.7461 17.9835 0.0000 -10770.2525 1431.5322 0.0000 0.0000 1778.3027 -7521.6532 302.0191 -9299.9559 -7530.2636 299.9615 0.0281 19.0064 30436.3978 -65.7186 -6.7655
ENERGY: 1200000 5.9078 13.0611 17.4639 0.0000 -10707.8570 1438.4515 0.0000 0.0000 1707.2651 -7525.7074 289.9544 -9232.9726 -7537.5333 298.4867 -135.5642 -83.0875 31167.0890 28.7761 86.5974
ENERGY: 1500000 6.1992 13.1830 21.3947 0.0000 -10756.8255 1460.8726 0.0000 0.0000 1801.7365 -7453.4395 305.9990 -9255.1760 -7537.2568 299.6426 498.7617 587.3200 30444.2616 35.6404 93.4121
TCL: Running FEP window  16: Lambda1 0.7500000000000001 Lambda2 0.8000000000000002 [dLambda 0.050000000000000044]
TCL: Setting parameter firsttimestep to 0
TCL: Setting parameter alchLambda to 0.7500000000000001
Info: NONBONDED TABLE R-SQUARED SPACING: 0.0625
Info: NONBONDED TABLE SIZE: 705 POINTS
TCL: Setting parameter alchLambda2 to 0.8000000000000002
Info: NONBONDED TABLE R-SQUARED SPACING: 0.0625
Info: NONBONDED TABLE SIZE: 705 POINTS
TCL: Running for 1500000 steps
ETITLE: TS BOND ANGLE DIHED IMPRP ELECT VDW BOUNDARY MISC KINETIC TOTAL TEMP POTENTIAL TOTALAVG TEMPAVG PRESSURE GPRESSURE VOLUME PRESSAVG GPRESSAVG
ENERGY: 0 6.1992 13.1830 21.3947 0.0000 -10758.5323 1459.6875 0.0000 0.0000 1800.8549 -7457.2130 305.8493 -9258.0679 -7457.2130 305.8493 504.0138 588.0223 30444.2616 504.0138 588.0223
ENERGY: 300000 4.0889 10.1231 25.0934 0.0000 -10912.1433 1480.8467 0.0000 0.0000 1741.9360 -7650.0554 295.8427 -9391.9913 -7553.5052 300.7297 320.8398 383.8021 30108.0803 155.9861 245.9140
ENERGY: 600000 9.7566 21.2216 16.9475 0.0000 -10677.9269 1358.1658 0.0000 0.0000 1753.3978 -7518.4375 297.7894 -9271.8353 -7550.0056 300.2000 -679.9042 -663.8771 31093.4312 -2.0584 87.2511
ENERGY: 900000 6.2199 16.2134 17.8482 0.0000 -10719.1075 1386.3800 0.0000 0.0000 1815.0404 -7477.4057 308.2585 -9292.4461 -7534.9083 300.4958 -415.9191 -410.3493 30827.8313 -195.5791 -108.1694
ENERGY: 1200000 5.2611 11.1178 22.0493 0.0000 -10837.2068 1456.9209 0.0000 0.0000 1788.3620 -7553.4957 303.7275 -9341.8577 -7534.0545 301.1083 -64.0484 -23.1819 30571.3097 -136.9154 -56.5343
ENERGY: 1500000 7.1245 12.4211 22.3569 0.0000 -10762.6170 1407.2763 0.0000 0.0000 1781.6549 -7531.7834 302.5884 -9313.4382 -7536.7134 300.4503 -84.5685 -3.5042 30435.1866 -130.9505 -54.2483
TCL: Running FEP window  17: Lambda1 0.8000000000000002 Lambda2 0.8500000000000002 [dLambda 0.050000000000000044]
TCL: Setting parameter firsttimestep to 0
TCL: Setting parameter alchLambda to 0.8000000000000002
Info: NONBONDED TABLE R-SQUARED SPACING: 0.0625
Info: NONBONDED TABLE SIZE: 705 POINTS
TCL: Setting parameter alchLambda2 to 0.8500000000000002
Info: NONBONDED TABLE R-SQUARED SPACING: 0.0625
Info: NONBONDED TABLE SIZE: 705 POINTS
TCL: Running for 1500000 steps
ETITLE: TS BOND ANGLE DIHED IMPRP ELECT VDW BOUNDARY MISC KINETIC TOTAL TEMP POTENTIAL TOTALAVG TEMPAVG PRESSURE GPRESSURE VOLUME PRESSAVG GPRESSAVG
ENERGY: 0 7.1245 12.4212 22.3569 0.0000 -10764.3103 1406.6222 0.0000 0.0000 1780.7797 -7535.0059 302.4398 -9315.7856 -7535.0059 302.4398 -79.7811 8.4523 30435.1866 -79.7811 8.4523
ENERGY: 300000 4.4996 8.6007 18.7093 0.0000 -10792.8969 1446.6887 0.0000 0.0000 1788.5234 -7525.8752 303.7549 -9314.3986 -7521.2568 304.3697 -82.8121 -3.7047 30922.8697 -35.5704 45.9402
ENERGY: 600000 7.3355 15.3996 25.4788 0.0000 -10854.1658 1437.0705 0.0000 0.0000 1786.5716 -7582.3098 303.4235 -9368.8815 -7537.5060 305.0015 -80.7420 -76.6673 30622.5194 20.8918 51.4686
ENERGY: 900000 3.3641 20.2712 22.2221 0.0000 -10804.4885 1385.2751 0.0000 0.0000 1780.6135 -7592.7424 302.4116 -9373.3559 -7540.7383 304.4338 -335.4387 -277.1547 30222.3571 3.8508 41.8103
ENERGY: 1200000 6.7084 9.6283 25.2900 0.0000 -10850.4278 1508.0810 0.0000 0.0000 1703.2846 -7597.4355 289.2784 -9300.7202 -7539.2827 303.3125 411.6141 415.5641 30407.4385 -15.1083 19.5608
ENERGY: 1500000 5.9208 8.4215 24.3227 0.0000 -10743.7455 1404.6263 0.0000 0.0000 1803.6921 -7496.7622 306.3311 -9300.4543 -7526.8457 304.0259 -108.1208 -95.6214 30793.6554 -33.7248 -2.8130
TCL: Running FEP window  18: Lambda1 0.8500000000000002 Lambda2 0.9000000000000002 [dLambda 0.050000000000000044]
TCL: Setting parameter firsttimestep to 0
TCL: Setting parameter alchLambda to 0.8500000000000002
Info: NONBONDED TABLE R-SQUARED SPACING: 0.0625
Info: NONBONDED TABLE SIZE: 705 POINTS
TCL: Setting parameter alchLambda2 to 0.9000000000000002
Info: NONBONDED TABLE R-SQUARED SPACING: 0.0625
Info: NONBONDED TABLE SIZE: 705 POINTS
TCL: Running for 1500000 steps
ETITLE: TS BOND ANGLE DIHED IMPRP ELECT VDW BOUNDARY MISC KINETIC TOTAL TEMP POTENTIAL TOTALAVG TEMPAVG PRESSURE GPRESSURE VOLUME PRESSAVG GPRESSAVG
ENERGY: 0 5.9208 8.4215 24.3227 0.0000 -10745.3869 1404.7426 0.0000 0.0000 1802.8181 -7499.1612 306.1827 -9301.9793 -7499.1612 306.1827 -159.8341 -76.5333 30793.6554 -159.8341 -76.5333
ENERGY: 300000 7.0324 13.8719 27.1275 0.0000 -10720.9185 1385.0113 0.0000 0.0000 1765.6654 -7522.2102 299.8728 -9287.8755 -7532.0354 301.6513 -256.2105 -183.6549 30226.5391 15.4219 88.8844
ENERGY: 600000 5.7471 10.5632 19.9992 0.0000 -10777.2015 1459.7292 0.0000 0.0000 1732.3269 -7548.8358 294.2108 -9281.1627 -7540.2490 297.8193 736.8234 756.4037 30041.7868 59.6838 118.6580
ENERGY: 900000 4.2005 14.0464 21.8721 0.0000 -10676.5243 1346.3453 0.0000 0.0000 1798.1765 -7491.8834 305.3944 -9290.0599 -7546.4543 298.9918 -694.1059 -571.1400 30879.1320 71.5734 136.4542
ENERGY: 1200000 4.2674 17.8316 24.7536 0.0000 -10784.4589 1405.7795 0.0000 0.0000 1726.2921 -7605.5347 293.1859 -9331.8268 -7543.2029 299.4638 -216.7889 -126.9426 30244.9783 109.4985 170.3462
ENERGY: 1500000 6.2232 16.6710 22.4336 0.0000 -10840.8381 1390.4948 0.0000 0.0000 1747.8547 -7657.1608 296.8480 -9405.0154 -7553.8548 299.1652 -654.3967 -575.1195 30475.7911 5.3797 67.0255
TCL: Running FEP window  19: Lambda1 0.9000000000000002 Lambda2 0.9500000000000003 [dLambda 0.050000000000000044]
TCL: Setting parameter firsttimestep to 0
TCL: Setting parameter alchLambda to 0.9000000000000002
Info: NONBONDED TABLE R-SQUARED SPACING: 0.0625
Info: NONBONDED TABLE SIZE: 705 POINTS
TCL: Setting parameter alchLambda2 to 0.9500000000000003
Info: NONBONDED TABLE R-SQUARED SPACING: 0.0625
Info: NONBONDED TABLE SIZE: 705 POINTS
TCL: Running for 1500000 steps
ETITLE: TS BOND ANGLE DIHED IMPRP ELECT VDW BOUNDARY MISC KINETIC TOTAL TEMP POTENTIAL TOTALAVG TEMPAVG PRESSURE GPRESSURE VOLUME PRESSAVG GPRESSAVG
ENERGY: 0 6.2232 16.6710 22.4336 0.0000 -10844.3182 1392.5238 0.0000 0.0000 1746.9685 -7659.4981 296.6974 -9406.4666 -7659.4981 296.6974 -626.5838 -541.0348 30475.7911 -626.5838 -541.0348
ENERGY: 300000 8.0899 8.3997 18.3399 0.0000 -10724.6542 1402.9248 0.0000 0.0000 1785.1738 -7501.7260 303.1861 -9286.8998 -7539.0165 301.4394 101.4746 99.3300 30474.8869 -319.4683 -244.8100
ENERGY: 600000 6.3323 9.1060 18.5692 0.0000 -10741.8507 1405.4221 0.0000 0.0000 1785.6704 -7516.7507 303.2704 -9302.4211 -7558.4763 300.9208 -62.2462 -31.7719 30615.5926 -161.6055 -89.3303
ENERGY: 900000 6.5805 9.9458 18.5987 0.0000 -10672.9966 1397.2299 0.0000 0.0000 1818.2166 -7422.4250 308.7979 -9240.6416 -7547.1723 300.9735 -77.7294 24.3398 30948.7710 -91.9884 -26.3896
ENERGY: 1200000 4.3570 15.4799 22.5629 0.0000 -10825.7162 1461.7512 0.0000 0.0000 1822.5363 -7499.0290 309.5315 -9321.5652 -7545.0901 301.0585 346.7728 482.6988 30565.3627 -105.7841 -30.8239
ENERGY: 1500000 4.8380 11.2176 16.6910 0.0000 -10690.5342 1335.4505 0.0000 0.0000 1785.4525 -7536.8847 303.2334 -9322.3371 -7547.6688 300.3255 -919.0968 -901.0050 30912.4779 -189.5248 -121.9788
TCL: Running FEP window  20: Lambda1 0.9500000000000003 Lambda2 1.0    [dLambda 0.04999999999999971]
TCL: Setting parameter firsttimestep to 0
TCL: Setting parameter alchLambda to 0.9500000000000003
Info: NONBONDED TABLE R-SQUARED SPACING: 0.0625
Info: NONBONDED TABLE SIZE: 705 POINTS
TCL: Setting parameter alchLambda2 to 1.0
Info: NONBONDED TABLE R-SQUARED SPACING: 0.0625
Info: NONBONDED TABLE SIZE: 705 POINTS
TCL: Running for 1500000 steps
ETITLE: TS BOND ANGLE DIHED IMPRP ELECT VDW BOUNDARY MISC KINETIC TOTAL TEMP POTENTIAL TOTALAVG TEMPAVG PRESSURE GPRESSURE VOLUME PRESSAVG GPRESSAVG
ENERGY: 0 4.8380 11.2176 16.6910 0.0000 -10693.2472 1336.6485 0.0000 0.0000 1784.5750 -7539.2771 303.0844 -9323.8521 -7539.2771 303.0844 -939.5103 -862.6872 30912.4779 -939.5103 -862.6872
ENERGY: 300000 7.5848 11.5156 23.5603 0.0000 -10732.4631 1390.8962 0.0000 0.0000 1737.8478 -7561.0583 295.1484 -9298.9062 -7578.5636 295.4583 -226.4042 -171.7060 30410.2371 -342.6296 -283.5329
ENERGY: 600000 8.6713 15.4313 16.3319 0.0000 -10714.5524 1334.5723 0.0000 0.0000 1756.8209 -7582.7247 298.3707 -9339.5456 -7583.0573 294.9210 -1017.5912 -953.2611 30660.4146 -501.0468 -440.1061
ENERGY: 900000 5.1070 13.5515 17.2423 0.0000 -10918.0136 1521.5252 0.0000 0.0000 1801.3098 -7559.2778 305.9265 -9360.5876 -7588.6562 295.6525 947.1603 1011.4068 30463.9964 -373.6996 -310.9256
ENERGY: 1200000 3.8765 10.4639 20.2546 0.0000 -10814.3462 1456.6833 0.0000 0.0000 1772.7934 -7550.2744 301.0834 -9323.0678 -7589.0115 296.5627 275.0817 354.0202 30645.3979 -261.9945 -201.4579
ENERGY: 1500000 10.7473 9.5665 20.4057 0.0000 -10813.0700 1424.3177 0.0000 0.0000 1792.0476 -7555.9853 304.3535 -9348.0328 -7575.1632 298.0893 -3.5042 7.0141 30646.2682 -261.0528 -202.9561
TCL: Exiting due to exit command.
