Info: SIMULATION PARAMETERS:
Info: TIMESTEP               2
Info: NUMBER OF STEPS        0
Info: STEPS PER CYCLE        10
Info: PERIODIC CELL BASIS 1  33.0822 0 0
Info: PERIODIC CELL BASIS 2  0 31.6188 0
Info: PERIODIC CELL BASIS 3  0 0 29.4015
Info: PERIODIC CELL CENTER   0 0 0
Info: WRAPPING WATERS AROUND PERIODIC BOUNDARIES ON OUTPUT.
Info: WRAPPING ALL CLUSTERS AROUND PERIODIC BOUNDARIES ON OUTPUT.
Info: FIRST LDB TIMESTEP     50
Info: LAST LDB TIMESTEP     -1
Info: HOM BACKGROUND SCALING 1
Info: PME BACKGROUND SCALING 1
Info: MIN ATOMS PER PATCH    40
Info: EMPTY PATCH LOAD       40 ATOMS
Info: VELOCITY FILE          mobley_52782_equil.vel
Info: CENTER OF MASS MOVING INITIALLY? NO
Info: DIELECTRIC             1
Info: EXCLUDE                SCALED ONE-FOUR
Info: 1-4 ELECTROSTATICS SCALED BY 0.833333
Info: MODIFIED 1-4 VDW PARAMETERS WILL BE USED
Info: DCD FILENAME           mobley_52782_prod.dcd
Info: DCD FREQUENCY          100000
Info: DCD FIRST STEP         100000
Info: DCD FILE WILL CONTAIN UNIT CELL DATA
Info: XST FILENAME           mobley_52782_prod.xst
Info: XST FREQUENCY          100000
Info: NO VELOCITY DCD OUTPUT
Info: NO FORCE DCD OUTPUT
Info: OUTPUT FILENAME        mobley_52782_prod
Info: BINARY OUTPUT FILES WILL BE USED
Info: RESTART FILENAME       mobley_52782_prod.restart
Info: RESTART FREQUENCY      100000
Info: BINARY RESTART FILES WILL BE USED
Info: CUTOFF                 9
Info: PAIRLIST DISTANCE      11
Info: PAIRLIST SHRINK RATE   0.01
Info: PAIRLIST GROW RATE     0.01
Info: PAIRLIST TRIGGER       0.3
Info: PAIRLISTS PER CYCLE    2
Info: PAIRLISTS ENABLED
Info: MARGIN                 2
Info: HYDROGEN GROUP CUTOFF  2.5
Info: PATCH DIMENSION        15.5
Info: ENERGY OUTPUT STEPS    100000
Info: ENERGY EVALUATION STEPS    100000
Info: OUTPUT ENERGY PRECISION 4
Info: CROSSTERM ENERGY INCLUDED IN DIHEDRAL
Info: TIMING OUTPUT STEPS    1000000
Info: PRESSURE OUTPUT STEPS  100000
Info: ALCHEMICAL FEP ON
Info: FEP CURRENT LAMBDA VALUE     0
Info: FEP COMPARISON LAMBDA VALUE  0.05
Info: FEP INTRA-ALCHEMICAL NON-BONDED INTERACTIONS WILL BE RETAINED
Info: FEP INTRA-ALCHEMICAL BONDED INTERACTIONS WILL BE RETAINED
Info: FEP VDW SHIFTING COEFFICIENT 5
Info: FEP ELEC. ACTIVE FOR ANNIHILATED PARTICLES BETWEEN LAMBDA = 0 AND LAMBDA = 0.5
Info: FEP ELEC. ACTIVE FOR EXNIHILATED PARTICLES BETWEEN LAMBDA = 0.5 AND LAMBDA = 1
Info: FEP VDW ACTIVE FOR ANNIHILATED PARTICLES BETWEEN LAMBDA = 0 AND LAMBDA = 1
Info: FEP VDW ACTIVE FOR EXNIHILATED PARTICLES BETWEEN LAMBDA = 0 AND LAMBDA = 1
Info: FEP BOND ACTIVE FOR ANNIHILATED PARTICLES BETWEEN LAMBDA = 1 AND LAMBDA = 1
Info: FEP BOND ACTIVE FOR EXNIHILATED PARTICLES BETWEEN LAMBDA = 0 AND LAMBDA = 0
Info: LANGEVIN DYNAMICS ACTIVE
Info: LANGEVIN TEMPERATURE   300
Info: LANGEVIN USING BBK INTEGRATOR
Info: LANGEVIN DAMPING COEFFICIENT IS 1 INVERSE PS
Info: LANGEVIN DYNAMICS APPLIED TO HYDROGENS
Info: LANGEVIN PISTON PRESSURE CONTROL ACTIVE
Info:        TARGET PRESSURE IS 1.01325 BAR
Info:     OSCILLATION PERIOD IS 50 FS
Info:             DECAY TIME IS 25 FS
Info:     PISTON TEMPERATURE IS 300 K
Info:       PRESSURE CONTROL IS GROUP-BASED
Info:    INITIAL STRAIN RATE IS -0.000284879 -0.000284879 -0.000284879
Info:       CELL FLUCTUATION IS ISOTROPIC
Info: PARTICLE MESH EWALD (PME) ACTIVE
Info: PME TOLERANCE               1e-06
Info: PME EWALD COEFFICIENT       0.348832
Info: PME INTERPOLATION ORDER     4
Info: PME GRID DIMENSIONS         36 32 32
Info: PME MAXIMUM GRID SPACING    1
Info: PME CALCULATION WILL BE PERFORMED ON GPU
Info: FULL ELECTROSTATIC EVALUATION FREQUENCY      2
Info: USING VERLET I (r-RESPA) MTS SCHEME.
Info: C1 SPLITTING OF LONG RANGE ELECTROSTATICS
Info: PLACING ATOMS IN PATCHES BY HYDROGEN GROUPS
Info: RIGID BONDS TO HYDROGEN : ALL
Info:         ERROR TOLERANCE : 1e-08
Info:          MAX ITERATIONS : 100
Info: RIGID WATER USING SETTLE ALGORITHM
Info: RANDOM NUMBER SEED     1744001308
Info: USE HYDROGEN BONDS?    NO
Info: Using AMBER format force field!
Info: AMBER PARM FILE        mobley_52782.prmtop
Info: COORDINATE PDB         mobley_52782.pdb
Info: Exclusions will be read from PARM file!
Info: SCNB (VDW SCALING)     2
Info: USING ARITHMETIC MEAN TO COMBINE L-J SIGMA PARAMETERS
Info: BINARY COORDINATES     mobley_52782_equil.coor
Info: SUMMARY OF PARAMETERS:
Info: 7 BONDS
Info: 7 ANGLES
Info:   7 HARMONIC
Info:   0 COSINE-BASED
Info: 7 DIHEDRAL
Info: 0 IMPROPER
Info: 0 CROSSTERM
Info: 0 VDW
Info: 28 VDW_PAIRS
Info: 0 NBTHOLE_PAIRS
Info: To read alchdata from file: mobley_52782.pdb
Info: To read alchflag data from column: 5
Info: STRUCTURE SUMMARY:
Info: 2999 ATOMS
Info: 2998 BONDS
Info: 20 ANGLES
Info: 24 DIHEDRALS
Info: 0 IMPROPERS
Info: 0 CROSSTERMS
Info: 3037 EXCLUSIONS
Info: 2989 RIGID BONDS
Info: ALCH: 0 ATOMS TO DISAPPEAR IN FINAL STATE
Info: ALCH: 14 ATOMS TO APPEAR IN FINAL STATE
Info: 6008 DEGREES OF FREEDOM
Info: 1005 HYDROGEN GROUPS
Info: 3 ATOMS IN LARGEST HYDROGEN GROUP
Info: 1005 MIGRATION GROUPS
Info: 3 ATOMS IN LARGEST MIGRATION GROUP
Info: TOTAL MASS = 18078 amu
Info: TOTAL CHARGE = -9.99719e-05 e
Info: MASS DENSITY = 0.976111 g/cm^3
Info: ATOM DENSITY = 0.0975138 atoms/A^3
Info: ADDED 0 IMPLICIT EXCLUSIONS
Info: NONBONDED TABLE R-SQUARED SPACING: 0.0625
Info: NONBONDED TABLE SIZE: 705 POINTS
Info: REDUCING NUMBER OF PATCHES TO IMPROVE LOAD BALANCE
Info: REMOVING COM VELOCITY -0.198875 0.12325 0.122447
Info: Use 3D box decompostion in PME FFT.
Info: Updated CUDA force table with 4096 elements.
Info: Updated CUDA LJ table with 7 x 7 elements.
Info: Found 15 unique exclusion lists needing 32 bytes
TCL: Running for 1500000 steps
ETITLE: TS BOND ANGLE DIHED IMPRP ELECT VDW BOUNDARY MISC KINETIC TOTAL TEMP POTENTIAL TOTALAVG TEMPAVG PRESSURE GPRESSURE VOLUME PRESSAVG GPRESSAVG
ENERGY: 0 0.2838 6.3258 4.3221 0.0000 -10762.4574 1463.9979 0.0000 0.0000 1811.7108 -7475.8171 303.4935 -9287.5279 -7475.8171 303.4935 419.9145 506.4774 30754.6115 419.9145 506.4774
ENERGY: 300000 3.6164 4.4087 7.0004 0.0000 -11008.1156 1594.9527 0.0000 0.0000 1754.8776 -7643.2598 293.9729 -9398.1374 -7611.5965 300.1744 864.9179 972.7789 30722.5600 311.8004 385.7844
ENERGY: 600000 3.0195 5.9879 6.7020 0.0000 -10844.8956 1447.3639 0.0000 0.0000 1812.8740 -7568.9483 303.6883 -9381.8223 -7582.8255 303.0005 -229.1231 -113.3169 30985.4280 235.5155 317.4958
ENERGY: 900000 2.7847 6.2581 2.1834 0.0000 -10833.1224 1453.4976 0.0000 0.0000 1846.6675 -7521.7311 309.3493 -9368.3986 -7577.0310 303.4749 388.7231 433.9466 30156.6112 261.1651 326.7064
ENERGY: 1200000 5.6889 2.7052 2.6409 0.0000 -10942.0193 1542.7080 0.0000 0.0000 1819.3058 -7568.9705 304.7658 -9388.2763 -7578.7346 303.4192 611.4250 674.9272 30594.1581 238.6524 303.3605
ENERGY: 1500000 3.1316 6.1721 3.6885 0.0000 -10988.5382 1589.9078 0.0000 0.0000 1793.4645 -7592.1737 300.4369 -9385.6381 -7581.7117 302.4058 1060.2897 1129.6333 30534.4397 275.9225 342.6379
TCL: Running FEP window   2: Lambda1 0.05   Lambda2 0.1    [dLambda 0.05  ]
TCL: Setting parameter firsttimestep to 0
TCL: Setting parameter alchLambda to 0.05
Info: NONBONDED TABLE R-SQUARED SPACING: 0.0625
Info: NONBONDED TABLE SIZE: 705 POINTS
TCL: Setting parameter alchLambda2 to 0.1
Info: NONBONDED TABLE R-SQUARED SPACING: 0.0625
Info: NONBONDED TABLE SIZE: 705 POINTS
TCL: Running for 1500000 steps
ETITLE: TS BOND ANGLE DIHED IMPRP ELECT VDW BOUNDARY MISC KINETIC TOTAL TEMP POTENTIAL TOTALAVG TEMPAVG PRESSURE GPRESSURE VOLUME PRESSAVG GPRESSAVG
ENERGY: 0 3.1316 6.1721 3.6885 0.0000 -10988.5390 1593.6045 0.0000 0.0000 1792.6284 -7589.3138 300.2968 -9381.9422 -7589.3138 300.2968 1039.4564 1134.9456 30534.4397 1039.4564 1134.9456
ENERGY: 300000 1.8173 9.5140 4.1495 0.0000 -10870.1688 1425.5926 0.0000 0.0000 1831.3120 -7597.7834 306.7770 -9429.0955 -7584.0473 302.8708 -238.4275 -240.2269 30595.5009 -35.9695 3.6944
ENERGY: 600000 2.6464 6.6603 2.9604 0.0000 -10907.4201 1445.1832 0.0000 0.0000 1722.5513 -7727.4186 288.5577 -9449.9699 -7603.0031 299.2204 -498.9207 -431.7517 30855.4397 -55.3705 -18.9402
ENERGY: 900000 3.0679 7.3948 4.2237 0.0000 -10885.9590 1467.8132 0.0000 0.0000 1784.5197 -7618.9397 298.9385 -9403.4594 -7597.7398 300.5642 -344.4329 -309.6425 31159.6052 -77.9275 -36.3292
ENERGY: 1200000 4.4376 11.0956 6.7823 0.0000 -11000.1012 1504.8517 0.0000 0.0000 1794.6775 -7678.2566 300.6401 -9472.9341 -7599.7356 299.5139 361.3285 325.8702 30265.1168 -78.2082 -39.4911
ENERGY: 1500000 3.1714 3.1210 3.2997 0.0000 -10835.6190 1482.8993 0.0000 0.0000 1834.6459 -7508.4817 307.3355 -9343.1276 -7591.9669 299.7565 426.4989 517.8865 30496.7716 -26.6012 17.1143
TCL: Running FEP window   3: Lambda1 0.1    Lambda2 0.15000000000000002 [dLambda 0.05000000000000002]
TCL: Setting parameter firsttimestep to 0
TCL: Setting parameter alchLambda to 0.1
Info: NONBONDED TABLE R-SQUARED SPACING: 0.0625
Info: NONBONDED TABLE SIZE: 705 POINTS
TCL: Setting parameter alchLambda2 to 0.15000000000000002
Info: NONBONDED TABLE R-SQUARED SPACING: 0.0625
Info: NONBONDED TABLE SIZE: 705 POINTS
TCL: Running for 1500000 steps
ETITLE: TS BOND ANGLE DIHED IMPRP ELECT VDW BOUNDARY MISC KINETIC TOTAL TEMP POTENTIAL TOTALAVG TEMPAVG PRESSURE GPRESSURE VOLUME PRESSAVG GPRESSAVG
ENERGY: 0 3.1714 3.1210 3.2997 0.0000 -10835.6185 1482.8231 0.0000 0.0000 1833.7408 -7509.4625 307.1839 -9343.2033 -7509.4625 307.1839 419.3250 520.6835 30496.7716 419.3250 520.6835
ENERGY: 300000 2.9129 8.1497 4.1508 0.0000 -10647.7580 1354.7620 0.0000 0.0000 1822.6128 -7455.1698 305.3197 -9277.7826 -7509.5404 303.7245 -769.5373 -754.1183 31602.6204 -345.0930 -274.0423
ENERGY: 600000 5.4469 8.0054 4.9317 0.0000 -10924.1231 1500.2228 0.0000 0.0000 1723.1114 -7682.4048 288.6515 -9405.5162 -7547.5887 300.3577 -155.6136 -107.2486 30956.4493 -285.5763 -220.3506
ENERGY: 900000 1.8361 4.6253 5.5737 0.0000 -11028.2570 1531.6621 0.0000 0.0000 1777.3487 -7707.2110 297.7372 -9484.5597 -7578.1897 300.6908 196.2077 214.4279 30853.5665 -116.8706 -48.0385
ENERGY: 1200000 2.7963 8.6637 1.6948 0.0000 -10779.8146 1403.2373 0.0000 0.0000 1796.6092 -7566.8132 300.9637 -9363.4224 -7583.6167 300.1895 -503.0477 -377.7434 30755.1570 -130.1852 -59.9139
ENERGY: 1500000 4.4453 7.3296 2.5085 0.0000 -10796.0618 1374.2980 0.0000 0.0000 1874.0861 -7533.3944 313.9424 -9407.4804 -7589.6331 299.9917 -1064.9360 -916.8396 31110.1254 -197.0750 -122.4162
TCL: Running FEP window   4: Lambda1 0.15000000000000002 Lambda2 0.2    [dLambda 0.04999999999999999]
TCL: Setting parameter firsttimestep to 0
TCL: Setting parameter alchLambda to 0.15000000000000002
Info: NONBONDED TABLE R-SQUARED SPACING: 0.0625
Info: NONBONDED TABLE SIZE: 705 POINTS
TCL: Setting parameter alchLambda2 to 0.2
Info: NONBONDED TABLE R-SQUARED SPACING: 0.0625
Info: NONBONDED TABLE SIZE: 705 POINTS
TCL: Running for 1500000 steps
ETITLE: TS BOND ANGLE DIHED IMPRP ELECT VDW BOUNDARY MISC KINETIC TOTAL TEMP POTENTIAL TOTALAVG TEMPAVG PRESSURE GPRESSURE VOLUME PRESSAVG GPRESSAVG
ENERGY: 0 4.4453 7.3296 2.5085 0.0000 -10796.0632 1376.8483 0.0000 0.0000 1873.1908 -7531.7406 313.7924 -9404.9315 -7531.7406 313.7924 -984.5230 -905.6285 31110.1254 -984.5230 -905.6285
ENERGY: 300000 2.1015 5.1625 3.3023 0.0000 -10873.5891 1465.5295 0.0000 0.0000 1785.7844 -7611.7088 299.1503 -9397.4933 -7614.2211 302.2180 -205.4699 -110.1362 31176.2533 -266.9398 -178.2892
ENERGY: 600000 3.7423 6.0582 6.1233 0.0000 -10771.7435 1365.3990 0.0000 0.0000 1793.8398 -7596.5808 300.4997 -9390.4206 -7601.3675 300.9397 -1079.2369 -969.7147 31059.0018 -324.4029 -240.2705
ENERGY: 900000 3.4752 8.4156 2.8915 0.0000 -10700.6971 1407.1743 0.0000 0.0000 1808.5379 -7470.2027 302.9619 -9278.7406 -7584.3973 302.3936 65.1117 120.4843 30730.2057 -301.2607 -222.9515
ENERGY: 1200000 2.9024 4.9392 2.9746 0.0000 -10911.0503 1469.4513 0.0000 0.0000 1768.8188 -7661.9639 296.3083 -9430.7827 -7587.0068 301.1820 24.8747 84.8572 30603.9292 -287.1994 -222.4208
ENERGY: 1500000 2.8972 6.2817 4.5557 0.0000 -10994.0024 1564.3218 0.0000 0.0000 1755.7210 -7660.2249 294.1142 -9415.9460 -7587.1940 300.9597 854.4580 934.0313 30383.0489 -158.5675 -93.1768
TCL: Running FEP window   5: Lambda1 0.2    Lambda2 0.25   [dLambda 0.04999999999999999]
TCL: Setting parameter firsttimestep to 0
TCL: Setting parameter alchLambda to 0.2
Info: NONBONDED TABLE R-SQUARED SPACING: 0.0625
Info: NONBONDED TABLE SIZE: 705 POINTS
TCL: Setting parameter alchLambda2 to 0.25
Info: NONBONDED TABLE R-SQUARED SPACING: 0.0625
Info: NONBONDED TABLE SIZE: 705 POINTS
TCL: Running for 1500000 steps
ETITLE: TS BOND ANGLE DIHED IMPRP ELECT VDW BOUNDARY MISC KINETIC TOTAL TEMP POTENTIAL TOTALAVG TEMPAVG PRESSURE GPRESSURE VOLUME PRESSAVG GPRESSAVG
ENERGY: 0 2.8972 6.2817 4.5557 0.0000 -10994.0019 1564.5974 0.0000 0.0000 1754.8174 -7660.8526 293.9628 -9415.6699 -7660.8526 293.9628 851.9483 935.8127 30383.0489 851.9483 935.8127
ENERGY: 300000 4.1408 4.9123 4.6191 0.0000 -10872.4531 1455.9393 0.0000 0.0000 1781.9726 -7620.8690 298.5118 -9402.8416 -7594.6267 303.7157 -119.8881 -51.0472 30592.4843 46.6849 102.0313
ENERGY: 600000 6.7077 4.5439 3.3553 0.0000 -11007.5605 1515.1352 0.0000 0.0000 1774.3182 -7703.5002 297.2295 -9477.8184 -7616.2490 301.6301 344.2561 386.6038 30676.5032 12.8090 58.3077
ENERGY: 900000 1.7490 4.8205 6.3418 0.0000 -10919.1225 1496.8439 0.0000 0.0000 1746.4930 -7662.8743 292.5683 -9409.3673 -7619.7930 301.2882 322.1480 361.2898 30765.6901 32.4748 83.3776
ENERGY: 1200000 2.3501 5.8069 2.6920 0.0000 -10935.4195 1505.2000 0.0000 0.0000 1806.3200 -7613.0505 302.5904 -9419.3704 -7615.8754 301.4045 108.2684 129.2221 30901.2437 -8.3994 44.6148
ENERGY: 1500000 3.2024 5.9660 4.8813 0.0000 -10929.5330 1496.5286 0.0000 0.0000 1784.2555 -7634.6992 298.8942 -9418.9547 -7609.1225 301.5466 208.8720 279.5372 30681.1905 76.2799 133.1431
TCL: Running FEP window   6: Lambda1 0.25   Lambda2 0.3    [dLambda 0.04999999999999999]
TCL: Setting parameter firsttimestep to 0
TCL: Setting parameter alchLambda to 0.25
Info: NONBONDED TABLE R-SQUARED SPACING: 0.0625
Info: NONBONDED TABLE SIZE: 705 POINTS
TCL: Setting parameter alchLambda2 to 0.3
Info: NONBONDED TABLE R-SQUARED SPACING: 0.0625
Info: NONBONDED TABLE SIZE: 705 POINTS
TCL: Running for 1500000 steps
ETITLE: TS BOND ANGLE DIHED IMPRP ELECT VDW BOUNDARY MISC KINETIC TOTAL TEMP POTENTIAL TOTALAVG TEMPAVG PRESSURE GPRESSURE VOLUME PRESSAVG GPRESSAVG
ENERGY: 0 3.2024 5.9660 4.8813 0.0000 -10929.5328 1496.6414 0.0000 0.0000 1783.3417 -7635.5000 298.7411 -9418.8417 -7635.5000 298.7411 209.5947 282.0957 30681.1905 209.5947 282.0957
ENERGY: 300000 1.8525 7.5325 8.9972 0.0000 -10842.6813 1477.7619 0.0000 0.0000 1836.0919 -7510.4454 307.5777 -9346.5372 -7593.4464 302.1043 345.9701 412.6303 30579.9438 457.6506 516.5467
ENERGY: 600000 3.8277 7.8721 4.0626 0.0000 -10876.6741 1431.2299 0.0000 0.0000 1727.8485 -7701.8333 289.4451 -9429.6818 -7606.0841 299.7811 -416.4322 -369.3173 30718.2548 227.8859 277.6631
ENERGY: 900000 1.1810 7.9242 8.7852 0.0000 -10924.3349 1441.7880 0.0000 0.0000 1794.1738 -7670.4827 300.5557 -9464.6565 -7601.7043 299.3294 -545.1094 -431.7931 31048.0090 111.3882 176.5355
ENERGY: 1200000 1.6314 5.1419 3.6814 0.0000 -10880.2467 1466.8387 0.0000 0.0000 1829.8887 -7573.0647 306.5386 -9402.9534 -7597.7981 300.0473 57.9793 153.5047 30692.8582 66.1338 133.2850
ENERGY: 1500000 2.4317 6.9071 3.8882 0.0000 -10870.6225 1416.4064 0.0000 0.0000 1725.3959 -7715.5932 289.0342 -9440.9891 -7608.1451 298.9352 -682.1041 -648.9511 30954.3201 5.4425 67.9133
TCL: Running FEP window   7: Lambda1 0.3    Lambda2 0.35   [dLambda 0.04999999999999999]
TCL: Setting parameter firsttimestep to 0
TCL: Setting parameter alchLambda to 0.3
Info: NONBONDED TABLE R-SQUARED SPACING: 0.0625
Info: NONBONDED TABLE SIZE: 705 POINTS
TCL: Setting parameter alchLambda2 to 0.35
Info: NONBONDED TABLE R-SQUARED SPACING: 0.0625
Info: NONBONDED TABLE SIZE: 705 POINTS
TCL: Running for 1500000 steps
ETITLE: TS BOND ANGLE DIHED IMPRP ELECT VDW BOUNDARY MISC KINETIC TOTAL TEMP POTENTIAL TOTALAVG TEMPAVG PRESSURE GPRESSURE VOLUME PRESSAVG GPRESSAVG
ENERGY: 0 2.4317 6.9071 3.8882 0.0000 -10870.6234 1416.3083 0.0000 0.0000 1724.5082 -7716.5799 288.8855 -9441.0882 -7716.5799 288.8855 -720.6169 -648.0515 30954.3201 -720.6169 -648.0515
ENERGY: 300000 3.1007 4.4310 1.8457 0.0000 -10763.5938 1404.8752 0.0000 0.0000 1794.7088 -7554.6324 300.6453 -9349.3412 -7613.4024 299.0867 -438.6768 -358.6466 31166.0993 -189.5198 -140.5313
ENERGY: 600000 0.9362 5.5579 4.3616 0.0000 -10943.6447 1428.3928 0.0000 0.0000 1757.2790 -7747.1172 294.3752 -9504.3962 -7630.4160 299.9487 -864.4473 -722.9694 31163.8987 -281.2915 -224.4438
ENERGY: 900000 3.1985 2.7755 3.0867 0.0000 -10956.3357 1503.9040 0.0000 0.0000 1750.0627 -7693.3082 293.1663 -9443.3709 -7627.7247 299.2485 -58.8054 6.3277 30864.4065 -215.6588 -165.1325
ENERGY: 1200000 2.0209 8.7787 4.7872 0.0000 -10917.8334 1442.7147 0.0000 0.0000 1736.3377 -7723.1942 290.8671 -9459.5319 -7623.3463 298.9571 -500.4544 -434.0364 30755.2077 -224.9491 -166.9568
ENERGY: 1500000 3.4843 7.8061 2.6865 0.0000 -10977.3030 1569.2781 0.0000 0.0000 1780.0399 -7614.0081 298.1880 -9394.0480 -7626.4713 298.6086 808.8556 840.6542 30753.0460 -162.2305 -101.3195
TCL: Running FEP window   8: Lambda1 0.35   Lambda2 0.39999999999999997 [dLambda 0.04999999999999999]
TCL: Setting parameter firsttimestep to 0
TCL: Setting parameter alchLambda to 0.35
Info: NONBONDED TABLE R-SQUARED SPACING: 0.0625
Info: NONBONDED TABLE SIZE: 705 POINTS
TCL: Setting parameter alchLambda2 to 0.39999999999999997
Info: NONBONDED TABLE R-SQUARED SPACING: 0.0625
Info: NONBONDED TABLE SIZE: 705 POINTS
TCL: Running for 1500000 steps
ETITLE: TS BOND ANGLE DIHED IMPRP ELECT VDW BOUNDARY MISC KINETIC TOTAL TEMP POTENTIAL TOTALAVG TEMPAVG PRESSURE GPRESSURE VOLUME PRESSAVG GPRESSAVG
ENERGY: 0 3.4843 7.8061 2.6865 0.0000 -10977.3019 1570.0393 0.0000 0.0000 1779.1645 -7614.1212 298.0414 -9393.2856 -7614.1212 298.0414 763.0830 851.0495 30753.0460 763.0830 851.0495
ENERGY: 300000 1.6312 7.6247 4.4794 0.0000 -10793.4497 1430.9576 0.0000 0.0000 1754.1007 -7594.6562 293.8428 -9348.7569 -7652.5885 293.5218 -391.9577 -380.4875 31502.6629 -230.5663 -184.7768
ENERGY: 600000 5.3531 4.3163 5.4192 0.0000 -10787.6065 1372.6532 0.0000 0.0000 1823.7718 -7576.0929 305.5139 -9399.8647 -7618.3756 296.4623 -1023.6773 -954.8306 31309.4852 -222.9255 -174.5139
ENERGY: 900000 0.7803 10.2288 3.7007 0.0000 -10879.0553 1401.1821 0.0000 0.0000 1769.1303 -7694.0331 296.3605 -9463.1634 -7616.9962 297.6858 -642.7096 -607.3372 30846.6983 -240.2510 -195.4140
ENERGY: 1200000 4.8195 6.7956 2.8168 0.0000 -10928.9266 1465.6322 0.0000 0.0000 1819.3330 -7629.5295 304.7703 -9448.8625 -7618.9529 298.3312 -206.2225 -119.3008 30624.1956 -89.1866 -34.6040
ENERGY: 1500000 5.0998 11.6167 3.1920 0.0000 -10792.7742 1474.1216 0.0000 0.0000 1797.0921 -7501.6520 301.0446 -9298.7440 -7614.7740 298.5893 132.6484 215.3779 31031.2097 -111.4814 -52.5306
TCL: Running FEP window   9: Lambda1 0.39999999999999997 Lambda2 0.44999999999999996 [dLambda 0.04999999999999999]
TCL: Setting parameter firsttimestep to 0
TCL: Setting parameter alchLambda to 0.39999999999999997
Info: NONBONDED TABLE R-SQUARED SPACING: 0.0625
Info: NONBONDED TABLE SIZE: 705 POINTS
TCL: Setting parameter alchLambda2 to 0.44999999999999996
Info: NONBONDED TABLE R-SQUARED SPACING: 0.0625
Info: NONBONDED TABLE SIZE: 705 POINTS
TCL: Running for 1500000 steps
ETITLE: TS BOND ANGLE DIHED IMPRP ELECT VDW BOUNDARY MISC KINETIC TOTAL TEMP POTENTIAL TOTALAVG TEMPAVG PRESSURE GPRESSURE VOLUME PRESSAVG GPRESSAVG
ENERGY: 0 5.0998 11.6167 3.1920 0.0000 -10792.7747 1474.4515 0.0000 0.0000 1796.2027 -7502.2120 300.8956 -9298.4147 -7502.2120 300.8956 133.3079 222.7333 31031.2097 133.3079 222.7333
ENERGY: 300000 1.6114 7.1086 5.4772 0.0000 -10953.3500 1485.4542 0.0000 0.0000 1759.5776 -7694.1210 294.7602 -9453.6986 -7595.0866 301.8565 223.1311 326.4992 30493.7929 -74.8770 7.5217
ENERGY: 600000 2.6987 5.9287 2.5409 0.0000 -10947.9073 1505.0785 0.0000 0.0000 1745.2870 -7686.3733 292.3663 -9431.6603 -7632.0540 298.7116 357.9016 483.7602 30215.0688 5.8024 102.2703
ENERGY: 900000 2.5138 7.4490 6.8697 0.0000 -11009.4865 1538.1110 0.0000 0.0000 1760.9333 -7693.6096 294.9873 -9454.5430 -7623.0910 298.3055 449.7030 479.6334 30903.4454 28.5765 111.3253
ENERGY: 1200000 1.8258 6.3425 4.8811 0.0000 -10861.9452 1495.4751 0.0000 0.0000 1805.6491 -7547.7716 302.4780 -9353.4206 -7612.0111 298.8658 484.4799 510.6136 30752.1038 94.4778 167.5533
ENERGY: 1500000 2.2677 5.2067 5.9055 0.0000 -10893.6748 1445.1639 0.0000 0.0000 1807.3501 -7627.7809 302.7630 -9435.1310 -7612.8449 299.4778 -178.1278 -153.1101 30732.3526 80.7741 144.3783
TCL: Running FEP window  10: Lambda1 0.44999999999999996 Lambda2 0.49999999999999994 [dLambda 0.04999999999999999]
TCL: Setting parameter firsttimestep to 0
TCL: Setting parameter alchLambda to 0.44999999999999996
Info: NONBONDED TABLE R-SQUARED SPACING: 0.0625
Info: NONBONDED TABLE SIZE: 705 POINTS
TCL: Setting parameter alchLambda2 to 0.49999999999999994
Info: NONBONDED TABLE R-SQUARED SPACING: 0.0625
Info: NONBONDED TABLE SIZE: 705 POINTS
TCL: Running for 1500000 steps
ETITLE: TS BOND ANGLE DIHED IMPRP ELECT VDW BOUNDARY MISC KINETIC TOTAL TEMP POTENTIAL TOTALAVG TEMPAVG PRESSURE GPRESSURE VOLUME PRESSAVG GPRESSAVG
ENERGY: 0 2.2678 5.2067 5.9055 0.0000 -10893.6747 1444.9045 0.0000 0.0000 1806.4664 -7628.9239 302.6149 -9435.3903 -7628.9239 302.6149 -234.7227 -151.5433 30732.3526 -234.7227 -151.5433
ENERGY: 300000 3.9687 6.5834 3.1148 0.0000 -10916.5523 1477.1529 0.0000 0.0000 1754.1452 -7671.5872 293.8502 -9425.7324 -7629.3353 298.9326 -40.6919 19.5937 30499.8562 -83.9634 -12.6596
ENERGY: 600000 3.6632 8.6958 4.5974 0.0000 -10840.7971 1506.7115 0.0000 0.0000 1830.2940 -7486.8353 306.6065 -9317.1293 -7602.5802 301.2947 302.1579 420.9118 31032.8953 -84.9944 -15.8550
ENERGY: 900000 5.1286 10.4860 5.8959 0.0000 -10864.5766 1459.9522 0.0000 0.0000 1810.4548 -7572.6591 303.2831 -9383.1139 -7612.8769 300.5088 -200.4918 -130.5482 31089.5933 -68.7184 -0.8753
ENERGY: 1200000 3.0365 7.0984 4.6795 0.0000 -10890.7924 1480.6381 0.0000 0.0000 1816.0332 -7579.3066 304.2175 -9395.3399 -7606.4928 300.3571 71.0339 156.9860 30848.0686 -20.3116 44.3147
ENERGY: 1500000 5.4814 4.7975 4.2539 0.0000 -10888.4618 1493.5669 0.0000 0.0000 1789.3814 -7590.9807 299.7529 -9380.3621 -7608.5924 300.1845 352.1005 351.8029 30717.1885 -70.4858 -8.8120
TCL: Running FEP window  11: Lambda1 0.49999999999999994 Lambda2 0.5499999999999999 [dLambda 0.04999999999999999]
TCL: Setting parameter firsttimestep to 0
TCL: Setting parameter alchLambda to 0.49999999999999994
Info: NONBONDED TABLE R-SQUARED SPACING: 0.0625
Info: NONBONDED TABLE SIZE: 705 POINTS
TCL: Setting parameter alchLambda2 to 0.5499999999999999
Info: NONBONDED TABLE R-SQUARED SPACING: 0.0625
Info: NONBONDED TABLE SIZE: 705 POINTS
TCL: Running for 1500000 steps
ETITLE: TS BOND ANGLE DIHED IMPRP ELECT VDW BOUNDARY MISC KINETIC TOTAL TEMP POTENTIAL TOTALAVG TEMPAVG PRESSURE GPRESSURE VOLUME PRESSAVG GPRESSAVG
ENERGY: 0 5.4814 4.7975 4.2539 0.0000 -10888.4624 1494.3970 0.0000 0.0000 1788.4885 -7591.0441 299.6033 -9379.5326 -7591.0441 299.6033 283.6478 368.0701 30717.1885 283.6478 368.0701
ENERGY: 300000 1.1461 3.8574 3.7874 0.0000 -10916.0455 1541.5064 0.0000 0.0000 1750.7027 -7615.0455 293.2735 -9365.7482 -7599.2249 300.0791 748.2880 795.6454 30697.2713 -64.9674 -16.9749
ENERGY: 600000 2.6549 4.3150 3.3985 0.0000 -10843.3415 1408.4537 0.0000 0.0000 1832.9546 -7591.5647 307.0522 -9424.5193 -7593.4432 302.8460 -240.6956 -182.2470 30463.4829 -107.7658 -49.6602
ENERGY: 900000 1.1296 6.4319 2.4487 0.0000 -10786.1110 1408.3649 0.0000 0.0000 1767.3335 -7600.4024 296.0595 -9367.7359 -7590.1718 301.2066 -372.7166 -265.6441 30802.5852 -81.2075 -23.8044
ENERGY: 1200000 1.3443 13.2033 4.1978 0.0000 -10978.8093 1509.5445 0.0000 0.0000 1832.5087 -7618.0107 306.9775 -9450.5194 -7589.2665 302.1884 434.4117 513.9478 30344.3907 3.7226 56.3039
ENERGY: 1500000 2.0395 6.1596 6.2087 0.0000 -10924.9709 1449.2397 0.0000 0.0000 1771.7287 -7689.5946 296.7958 -9461.3233 -7605.4119 301.7409 -587.4066 -514.5700 31140.7286 -59.2263 -3.2237
TCL: Running FEP window  12: Lambda1 0.5499999999999999 Lambda2 0.6    [dLambda 0.050000000000000044]
TCL: Setting parameter firsttimestep to 0
TCL: Setting parameter alchLambda to 0.5499999999999999
Info: NONBONDED TABLE R-SQUARED SPACING: 0.0625
Info: NONBONDED TABLE SIZE: 705 POINTS
TCL: Setting parameter alchLambda2 to 0.6
Info: NONBONDED TABLE R-SQUARED SPACING: 0.0625
Info: NONBONDED TABLE SIZE: 705 POINTS
TCL: Running for 1500000 steps
ETITLE: TS BOND ANGLE DIHED IMPRP ELECT VDW BOUNDARY MISC KINETIC TOTAL TEMP POTENTIAL TOTALAVG TEMPAVG PRESSURE GPRESSURE VOLUME PRESSAVG GPRESSAVG
ENERGY: 0 2.0395 6.1596 6.2087 0.0000 -10925.5602 1448.7931 0.0000 0.0000 1770.8235 -7691.5358 296.6441 -9462.3593 -7691.5358 296.6441 -592.6772 -511.2211 31140.7286 -592.6772 -511.2211
ENERGY: 300000 2.9826 9.7916 5.4215 0.0000 -10948.5110 1446.2257 0.0000 0.0000 1788.8354 -7695.2542 299.6614 -9484.0897 -7670.9296 295.6574 -522.9325 -391.0098 30894.4297 -444.8633 -348.6165
ENERGY: 600000 6.6295 4.9802 5.3248 0.0000 -10779.8975 1432.8210 0.0000 0.0000 1797.1586 -7532.9834 301.0557 -9330.1420 -7629.7090 297.3888 -204.4497 -180.3492 31126.6443 -138.1406 -65.3193
ENERGY: 900000 1.2273 5.7305 3.0431 0.0000 -10770.3286 1375.4403 0.0000 0.0000 1824.6987 -7560.1888 305.6692 -9384.8875 -7619.8263 298.5808 -644.1885 -590.6752 31103.1697 -245.0331 -166.8542
ENERGY: 1200000 1.9449 4.5188 5.1642 0.0000 -10895.0910 1450.3935 0.0000 0.0000 1749.8075 -7683.2620 293.1236 -9433.0695 -7626.0202 298.1390 56.4268 90.9868 30634.2607 -273.6133 -205.4784
ENERGY: 1500000 6.8470 7.9817 3.8230 0.0000 -10839.6447 1452.4898 0.0000 0.0000 1846.7209 -7521.7824 309.3583 -9368.5033 -7619.8576 299.3771 -0.9714 38.6124 30920.4197 -240.7180 -173.8634
TCL: Running FEP window  13: Lambda1 0.6    Lambda2 0.65   [dLambda 0.050000000000000044]
TCL: Setting parameter firsttimestep to 0
TCL: Setting parameter alchLambda to 0.6
Info: NONBONDED TABLE R-SQUARED SPACING: 0.0625
Info: NONBONDED TABLE SIZE: 705 POINTS
TCL: Setting parameter alchLambda2 to 0.65
Info: NONBONDED TABLE R-SQUARED SPACING: 0.0625
Info: NONBONDED TABLE SIZE: 705 POINTS
TCL: Running for 1500000 steps
ETITLE: TS BOND ANGLE DIHED IMPRP ELECT VDW BOUNDARY MISC KINETIC TOTAL TEMP POTENTIAL TOTALAVG TEMPAVG PRESSURE GPRESSURE VOLUME PRESSAVG GPRESSAVG
ENERGY: 0 6.8470 7.9817 3.8230 0.0000 -10839.8813 1451.7135 0.0000 0.0000 1845.8120 -7523.7041 309.2060 -9369.5161 -7523.7041 309.2060 -37.3282 37.7789 30920.4197 -37.3282 37.7789
ENERGY: 300000 2.3559 9.1912 4.2346 0.0000 -10954.2618 1480.1566 0.0000 0.0000 1734.3889 -7723.9346 290.5407 -9458.3235 -7596.5135 302.3094 -106.1165 -44.8350 30763.8455 -172.3850 -106.0489
ENERGY: 600000 0.4344 6.3176 5.0073 0.0000 -10844.3738 1479.6255 0.0000 0.0000 1813.9664 -7539.0226 303.8713 -9352.9890 -7599.6103 301.5593 395.4534 500.2261 30605.2867 203.5734 270.9104
ENERGY: 900000 3.0583 5.1992 2.0649 0.0000 -10823.9597 1459.9264 0.0000 0.0000 1808.5130 -7545.1978 302.9578 -9353.7108 -7599.1563 300.6080 55.1736 106.9692 30897.7877 148.8167 210.8871
ENERGY: 1200000 0.6926 5.2940 2.6483 0.0000 -10908.6085 1451.6876 0.0000 0.0000 1797.6328 -7650.6532 301.1351 -9448.2861 -7601.9496 301.4307 -108.5463 1.9884 30855.4548 119.1870 184.5340
ENERGY: 1500000 2.3600 4.2982 6.3164 0.0000 -10984.2320 1520.9459 0.0000 0.0000 1836.8318 -7613.4797 307.7017 -9450.3115 -7606.4978 301.3138 560.3634 616.6936 30487.8744 87.5788 147.7665
TCL: Running FEP window  14: Lambda1 0.65   Lambda2 0.7000000000000001 [dLambda 0.050000000000000044]
TCL: Setting parameter firsttimestep to 0
TCL: Setting parameter alchLambda to 0.65
Info: NONBONDED TABLE R-SQUARED SPACING: 0.0625
Info: NONBONDED TABLE SIZE: 705 POINTS
TCL: Setting parameter alchLambda2 to 0.7000000000000001
Info: NONBONDED TABLE R-SQUARED SPACING: 0.0625
Info: NONBONDED TABLE SIZE: 705 POINTS
TCL: Running for 1500000 steps
ETITLE: TS BOND ANGLE DIHED IMPRP ELECT VDW BOUNDARY MISC KINETIC TOTAL TEMP POTENTIAL TOTALAVG TEMPAVG PRESSURE GPRESSURE VOLUME PRESSAVG GPRESSAVG
ENERGY: 0 2.3600 4.2982 6.3164 0.0000 -10984.3325 1520.8406 0.0000 0.0000 1835.9145 -7614.6028 307.5480 -9450.5173 -7614.6028 307.5480 536.4319 622.5052 30487.8744 536.4319 622.5052
ENERGY: 300000 4.8254 4.2839 2.4327 0.0000 -10858.9295 1434.2243 0.0000 0.0000 1774.3347 -7638.8284 297.2323 -9413.1632 -7609.4094 300.3828 -559.4133 -459.4888 31040.8809 -92.6853 -12.1872
ENERGY: 600000 3.5819 11.8459 3.1419 0.0000 -10820.0617 1397.5922 0.0000 0.0000 1797.5189 -7606.3808 301.1161 -9403.8997 -7610.5514 300.7596 -516.4325 -422.1684 30573.0013 -96.9733 -25.8516
ENERGY: 900000 1.3788 9.2141 3.6556 0.0000 -10885.0605 1510.5012 0.0000 0.0000 1811.4094 -7548.9014 303.4430 -9360.3108 -7601.1655 300.8765 617.5329 680.1154 30728.7009 59.2640 122.2932
ENERGY: 1200000 1.9930 5.2476 3.4788 0.0000 -10852.3279 1413.4905 0.0000 0.0000 1776.8036 -7651.3143 297.6459 -9428.1180 -7603.2485 300.4829 -734.4823 -658.6862 31396.9506 -45.9487 21.8571
ENERGY: 1500000 2.7412 7.9054 5.2351 0.0000 -10859.3143 1437.6853 0.0000 0.0000 1775.4501 -7630.2971 297.4192 -9405.7473 -7603.9910 300.1661 -167.1020 -80.9598 30564.1563 -62.7804 1.8762
TCL: Running FEP window  15: Lambda1 0.7000000000000001 Lambda2 0.7500000000000001 [dLambda 0.050000000000000044]
TCL: Setting parameter firsttimestep to 0
TCL: Setting parameter alchLambda to 0.7000000000000001
Info: NONBONDED TABLE R-SQUARED SPACING: 0.0625
Info: NONBONDED TABLE SIZE: 705 POINTS
TCL: Setting parameter alchLambda2 to 0.7500000000000001
Info: NONBONDED TABLE R-SQUARED SPACING: 0.0625
Info: NONBONDED TABLE SIZE: 705 POINTS
TCL: Running for 1500000 steps
ETITLE: TS BOND ANGLE DIHED IMPRP ELECT VDW BOUNDARY MISC KINETIC TOTAL TEMP POTENTIAL TOTALAVG TEMPAVG PRESSURE GPRESSURE VOLUME PRESSAVG GPRESSAVG
ENERGY: 0 2.7412 7.9054 5.2351 0.0000 -10859.4463 1437.8006 0.0000 0.0000 1774.5949 -7631.1691 297.2759 -9405.7640 -7631.1691 297.2759 -152.2318 -70.5846 30564.1563 -152.2318 -70.5846
ENERGY: 300000 1.9988 5.9420 2.4161 0.0000 -10901.4689 1494.9200 0.0000 0.0000 1784.8379 -7611.3540 298.9918 -9396.1919 -7647.3596 299.4448 544.3999 584.7519 30312.6272 -191.6341 -119.6822
ENERGY: 600000 2.8249 3.0987 4.2928 0.0000 -10891.1355 1480.0978 0.0000 0.0000 1739.0254 -7661.7960 291.3174 -9400.8213 -7634.0487 297.1356 88.1445 125.8074 30859.8584 -141.2903 -73.1246
ENERGY: 900000 7.1476 4.7485 6.3163 0.0000 -10843.0233 1442.0741 0.0000 0.0000 1800.4239 -7582.3130 301.6027 -9382.7368 -7616.4201 298.7124 -241.3271 -144.8044 30780.1139 -196.6044 -114.0290
ENERGY: 1200000 1.6062 8.7054 5.9199 0.0000 -11000.0806 1490.7708 0.0000 0.0000 1832.8552 -7660.2231 307.0355 -9493.0783 -7610.7446 300.0057 -9.3142 39.5989 30903.2698 -136.7858 -67.4119
ENERGY: 1500000 3.7300 4.0240 6.7390 0.0000 -10527.6701 1248.9630 0.0000 0.0000 1793.6071 -7470.6071 300.4608 -9264.2141 -7600.8738 300.3873 -1634.0641 -1539.7618 31478.2827 -172.5254 -101.1490
TCL: Running FEP window  16: Lambda1 0.7500000000000001 Lambda2 0.8000000000000002 [dLambda 0.050000000000000044]
TCL: Setting parameter firsttimestep to 0
TCL: Setting parameter alchLambda to 0.7500000000000001
Info: NONBONDED TABLE R-SQUARED SPACING: 0.0625
Info: NONBONDED TABLE SIZE: 705 POINTS
TCL: Setting parameter alchLambda2 to 0.8000000000000002
Info: NONBONDED TABLE R-SQUARED SPACING: 0.0625
Info: NONBONDED TABLE SIZE: 705 POINTS
TCL: Running for 1500000 steps
ETITLE: TS BOND ANGLE DIHED IMPRP ELECT VDW BOUNDARY MISC KINETIC TOTAL TEMP POTENTIAL TOTALAVG TEMPAVG PRESSURE GPRESSURE VOLUME PRESSAVG GPRESSAVG
ENERGY: 0 3.7300 4.0241 6.7390 0.0000 -10527.9317 1248.9125 0.0000 0.0000 1792.7283 -7471.7979 300.3136 -9264.5263 -7471.7979 300.3136 -1617.4504 -1529.2258 31478.2827 -1617.4504 -1529.2258
ENERGY: 300000 1.4668 5.2068 3.0535 0.0000 -10997.5708 1550.7374 0.0000 0.0000 1772.4834 -7664.6228 296.9222 -9437.1063 -7605.4871 300.0777 856.1309 881.6859 30281.2190 -83.9519 -55.0509
ENERGY: 600000 4.7326 6.7301 4.2550 0.0000 -10810.6742 1396.9039 0.0000 0.0000 1789.3377 -7608.7149 299.7456 -9398.0526 -7586.5374 300.8339 -453.9593 -398.9906 30678.8701 -174.3085 -115.4856
ENERGY: 900000 2.3426 5.7797 3.4110 0.0000 -10871.7979 1415.4727 0.0000 0.0000 1786.2335 -7658.5584 299.2256 -9444.7918 -7596.0927 299.7033 -536.0000 -493.4487 30893.4549 -296.8976 -231.5783
ENERGY: 1200000 1.6961 5.3245 1.7510 0.0000 -11000.4772 1517.4502 0.0000 0.0000 1759.9397 -7714.3157 294.8209 -9474.2554 -7612.0773 299.2099 344.5438 383.1415 30810.4836 -274.2974 -210.9267
ENERGY: 1500000 2.4357 5.0753 3.2742 0.0000 -10817.4021 1449.8210 0.0000 0.0000 1797.0767 -7559.7192 301.0420 -9356.7959 -7602.0531 299.3643 -64.2306 -34.0654 31199.1029 -289.6585 -229.1409
TCL: Running FEP window  17: Lambda1 0.8000000000000002 Lambda2 0.8500000000000002 [dLambda 0.050000000000000044]
TCL: Setting parameter firsttimestep to 0
TCL: Setting parameter alchLambda to 0.8000000000000002
Info: NONBONDED TABLE R-SQUARED SPACING: 0.0625
Info: NONBONDED TABLE SIZE: 705 POINTS
TCL: Setting parameter alchLambda2 to 0.8500000000000002
Info: NONBONDED TABLE R-SQUARED SPACING: 0.0625
Info: NONBONDED TABLE SIZE: 705 POINTS
TCL: Running for 1500000 steps
ETITLE: TS BOND ANGLE DIHED IMPRP ELECT VDW BOUNDARY MISC KINETIC TOTAL TEMP POTENTIAL TOTALAVG TEMPAVG PRESSURE GPRESSURE VOLUME PRESSAVG GPRESSAVG
ENERGY: 0 2.4357 5.0752 3.2742 0.0000 -10818.0303 1449.8812 0.0000 0.0000 1796.1816 -7561.1823 300.8920 -9357.3639 -7561.1823 300.8920 -87.5676 -22.1113 31199.1029 -87.5676 -22.1113
ENERGY: 300000 2.8173 4.2813 5.6493 0.0000 -10886.7839 1447.5330 0.0000 0.0000 1777.1002 -7649.4028 297.6956 -9426.5029 -7607.2794 301.3394 8.8335 136.8193 30494.3652 -220.3608 -143.9479
ENERGY: 600000 4.1836 6.0080 3.5847 0.0000 -10799.3038 1355.9357 0.0000 0.0000 1842.7669 -7586.8248 308.6959 -9429.5917 -7589.9847 301.4534 -963.6533 -874.8424 30901.0373 -341.4310 -261.2799
ENERGY: 900000 2.4043 7.0720 3.4317 0.0000 -10892.7710 1447.3550 0.0000 0.0000 1804.3824 -7628.1256 302.2658 -9432.5080 -7596.4826 301.5575 -226.1655 -200.6505 30855.1559 -214.4568 -146.7260
ENERGY: 1200000 3.3041 8.1349 4.8629 0.0000 -10807.6332 1397.9438 0.0000 0.0000 1744.8162 -7648.5714 292.2874 -9393.3876 -7596.7676 300.9816 -739.7633 -662.5764 31396.8725 -177.4942 -115.0406
ENERGY: 1500000 2.3213 5.5092 1.9187 0.0000 -10932.4173 1462.8342 0.0000 0.0000 1791.3016 -7668.5323 300.0746 -9459.8339 -7602.3679 300.3779 53.0114 45.2402 30622.1692 -251.8346 -192.5217
TCL: Running FEP window  18: Lambda1 0.8500000000000002 Lambda2 0.9000000000000002 [dLambda 0.050000000000000044]
TCL: Setting parameter firsttimestep to 0
TCL: Setting parameter alchLambda to 0.8500000000000002
Info: NONBONDED TABLE R-SQUARED SPACING: 0.0625
Info: NONBONDED TABLE SIZE: 705 POINTS
TCL: Setting parameter alchLambda2 to 0.9000000000000002
Info: NONBONDED TABLE R-SQUARED SPACING: 0.0625
Info: NONBONDED TABLE SIZE: 705 POINTS
TCL: Running for 1500000 steps
ETITLE: TS BOND ANGLE DIHED IMPRP ELECT VDW BOUNDARY MISC KINETIC TOTAL TEMP POTENTIAL TOTALAVG TEMPAVG PRESSURE GPRESSURE VOLUME PRESSAVG GPRESSAVG
ENERGY: 0 2.3213 5.5092 1.9187 0.0000 -10933.5462 1462.7610 0.0000 0.0000 1790.3970 -7670.6391 299.9230 -9461.0360 -7670.6391 299.9230 -23.1305 52.8296 30622.1692 -23.1305 52.8296
ENERGY: 300000 2.2179 6.9142 3.7958 0.0000 -10830.4069 1378.7363 0.0000 0.0000 1738.7607 -7699.9820 291.2730 -9438.7427 -7635.5584 296.0723 -738.3379 -692.3734 30778.5008 -240.5496 -181.9037
ENERGY: 600000 2.6930 6.0402 3.0849 0.0000 -10718.4328 1380.5398 0.0000 0.0000 1785.6114 -7540.4634 299.1213 -9326.0748 -7621.1274 299.5599 -433.9748 -391.8011 31361.7560 -223.9550 -152.6795
ENERGY: 900000 4.7465 4.0788 2.5784 0.0000 -10990.8923 1581.4445 0.0000 0.0000 1769.6955 -7628.3487 296.4551 -9398.0441 -7619.7870 298.6263 773.7017 852.2493 30718.2768 -109.5799 -36.4923
ENERGY: 1200000 3.1544 7.3927 2.9203 0.0000 -10873.2752 1470.4814 0.0000 0.0000 1770.8061 -7618.5203 296.6412 -9389.3264 -7618.9879 299.2235 297.0122 377.6836 30682.7583 -104.8064 -31.1739
ENERGY: 1500000 4.0418 5.1893 4.2221 0.0000 -10857.0649 1475.7613 0.0000 0.0000 1739.1394 -7628.7110 291.3365 -9367.8504 -7626.3923 297.7199 216.0351 205.6879 30838.8865 -47.6078 20.3127
TCL: Running FEP window  19: Lambda1 0.9000000000000002 Lambda2 0.9500000000000003 [dLambda 0.050000000000000044]
TCL: Setting parameter firsttimestep to 0
TCL: Setting parameter alchLambda to 0.9000000000000002
Info: NONBONDED TABLE R-SQUARED SPACING: 0.0625
Info: NONBONDED TABLE SIZE: 705 POINTS
TCL: Setting parameter alchLambda2 to 0.9500000000000003
Info: NONBONDED TABLE R-SQUARED SPACING: 0.0625
Info: NONBONDED TABLE SIZE: 705 POINTS
TCL: Running for 1500000 steps
ETITLE: TS BOND ANGLE DIHED IMPRP ELECT VDW BOUNDARY MISC KINETIC TOTAL TEMP POTENTIAL TOTALAVG TEMPAVG PRESSURE GPRESSURE VOLUME PRESSAVG GPRESSAVG
ENERGY: 0 4.0418 5.1893 4.2221 0.0000 -10857.8462 1476.7423 0.0000 0.0000 1738.2311 -7629.4195 291.1843 -9367.6506 -7629.4195 291.1843 168.9232 228.3112 30838.8865 168.9232 228.3112
ENERGY: 300000 5.3894 9.0340 3.3054 0.0000 -10921.9487 1487.6956 0.0000 0.0000 1826.6533 -7589.8710 305.9966 -9416.5243 -7609.3576 300.3134 56.8181 118.5612 30929.4444 -42.7988 41.1949
ENERGY: 600000 2.2092 8.8635 4.3181 0.0000 -10832.7656 1477.6251 0.0000 0.0000 1839.9385 -7499.8111 308.2221 -9339.7497 -7595.9713 301.8973 447.7350 555.2071 30711.6575 54.9234 136.8292
ENERGY: 900000 3.2315 4.6584 3.2117 0.0000 -10827.3441 1440.1600 0.0000 0.0000 1755.3776 -7620.7050 294.0567 -9376.0826 -7595.3533 301.0469 -133.5849 -44.2220 31107.2675 -68.8459 15.8589
ENERGY: 1200000 4.0279 2.9128 2.5572 0.0000 -10936.9514 1489.4258 0.0000 0.0000 1824.9042 -7613.1236 305.7036 -9438.0277 -7604.7521 301.2589 238.5703 280.2654 30654.5274 -58.0600 14.3389
ENERGY: 1500000 1.2586 6.3910 2.5198 0.0000 -10990.5819 1486.7945 0.0000 0.0000 1802.4321 -7691.1859 301.9391 -9493.6180 -7611.6068 300.8931 -114.7566 24.9913 30911.7693 -76.7042 3.2232
TCL: Running FEP window  20: Lambda1 0.9500000000000003 Lambda2 1.0    [dLambda 0.04999999999999971]
TCL: Setting parameter firsttimestep to 0
TCL: Setting parameter alchLambda to 0.9500000000000003
Info: NONBONDED TABLE R-SQUARED SPACING: 0.0625
Info: NONBONDED TABLE SIZE: 705 POINTS
TCL: Setting parameter alchLambda2 to 1.0
Info: NONBONDED TABLE R-SQUARED SPACING: 0.0625
Info: NONBONDED TABLE SIZE: 705 POINTS
TCL: Running for 1500000 steps
ETITLE: TS BOND ANGLE DIHED IMPRP ELECT VDW BOUNDARY MISC KINETIC TOTAL TEMP POTENTIAL TOTALAVG TEMPAVG PRESSURE GPRESSURE VOLUME PRESSAVG GPRESSAVG
ENERGY: 0 1.2586 6.3910 2.5198 0.0000 -10992.6244 1487.5426 0.0000 0.0000 1801.4928 -7693.4197 301.7818 -9494.9124 -7693.4197 301.7818 -37.9571 46.6130 30911.7693 -37.9571 46.6130
ENERGY: 300000 2.5067 6.6279 2.7034 0.0000 -10738.0755 1352.5068 0.0000 0.0000 1781.9126 -7591.8180 298.5017 -9373.7307 -7629.9200 298.4092 -868.9895 -812.5423 31043.7712 -204.9509 -164.9604
ENERGY: 600000 2.9061 8.3141 3.1672 0.0000 -11028.1571 1552.5380 0.0000 0.0000 1742.8543 -7718.3774 291.9588 -9461.2317 -7636.0266 296.5581 627.2185 639.6988 30600.3363 -139.5559 -86.0449
ENERGY: 900000 4.8442 3.4255 4.2036 0.0000 -11104.1747 1559.4417 0.0000 0.0000 1782.0276 -7750.2320 298.5210 -9532.2596 -7636.7249 297.5031 585.9547 716.5360 30366.8132 -49.0157 17.0470
ENERGY: 1200000 6.8484 8.9741 3.8290 0.0000 -10998.6143 1561.8135 0.0000 0.0000 1792.6013 -7624.5479 300.2923 -9417.1493 -7620.4751 298.8473 1189.7770 1292.0354 30260.6274 124.2501 184.9126
ENERGY: 1500000 3.7278 10.5052 6.0952 0.0000 -10945.2975 1435.7899 0.0000 0.0000 1750.2200 -7738.9594 293.1927 -9489.1794 -7626.1004 298.1283 -304.4991 -309.9864 30496.3276 8.4041 66.9849
TCL: Exiting due to exit command.
