Info: SIMULATION PARAMETERS:
Info: TIMESTEP               2
Info: NUMBER OF STEPS        0
Info: STEPS PER CYCLE        10
Info: PERIODIC CELL BASIS 1  29.9284 0 0
Info: PERIODIC CELL BASIS 2  0 32.3616 0
Info: PERIODIC CELL BASIS 3  0 0 31.4469
Info: PERIODIC CELL CENTER   0 0 0
Info: WRAPPING WATERS AROUND PERIODIC BOUNDARIES ON OUTPUT.
Info: WRAPPING ALL CLUSTERS AROUND PERIODIC BOUNDARIES ON OUTPUT.
Info: FIRST LDB TIMESTEP     50
Info: LAST LDB TIMESTEP     -1
Info: HOM BACKGROUND SCALING 1
Info: PME BACKGROUND SCALING 1
Info: MIN ATOMS PER PATCH    40
Info: EMPTY PATCH LOAD       40 ATOMS
Info: VELOCITY FILE          mobley_7754849_equil.vel
Info: CENTER OF MASS MOVING INITIALLY? NO
Info: DIELECTRIC             1
Info: EXCLUDE                SCALED ONE-FOUR
Info: 1-4 ELECTROSTATICS SCALED BY 0.833333
Info: MODIFIED 1-4 VDW PARAMETERS WILL BE USED
Info: DCD FILENAME           mobley_7754849_prod.dcd
Info: DCD FREQUENCY          100000
Info: DCD FIRST STEP         100000
Info: DCD FILE WILL CONTAIN UNIT CELL DATA
Info: XST FILENAME           mobley_7754849_prod.xst
Info: XST FREQUENCY          100000
Info: NO VELOCITY DCD OUTPUT
Info: NO FORCE DCD OUTPUT
Info: OUTPUT FILENAME        mobley_7754849_prod
Info: BINARY OUTPUT FILES WILL BE USED
Info: RESTART FILENAME       mobley_7754849_prod.restart
Info: RESTART FREQUENCY      100000
Info: BINARY RESTART FILES WILL BE USED
Info: CUTOFF                 9
Info: PAIRLIST DISTANCE      11
Info: PAIRLIST SHRINK RATE   0.01
Info: PAIRLIST GROW RATE     0.01
Info: PAIRLIST TRIGGER       0.3
Info: PAIRLISTS PER CYCLE    2
Info: PAIRLISTS ENABLED
Info: MARGIN                 2
Info: HYDROGEN GROUP CUTOFF  2.5
Info: PATCH DIMENSION        15.5
Info: ENERGY OUTPUT STEPS    100000
Info: ENERGY EVALUATION STEPS    100000
Info: OUTPUT ENERGY PRECISION 4
Info: CROSSTERM ENERGY INCLUDED IN DIHEDRAL
Info: TIMING OUTPUT STEPS    1000000
Info: PRESSURE OUTPUT STEPS  100000
Info: ALCHEMICAL FEP ON
Info: FEP CURRENT LAMBDA VALUE     0
Info: FEP COMPARISON LAMBDA VALUE  0.05
Info: FEP INTRA-ALCHEMICAL NON-BONDED INTERACTIONS WILL BE RETAINED
Info: FEP INTRA-ALCHEMICAL BONDED INTERACTIONS WILL BE RETAINED
Info: FEP VDW SHIFTING COEFFICIENT 5
Info: FEP ELEC. ACTIVE FOR ANNIHILATED PARTICLES BETWEEN LAMBDA = 0 AND LAMBDA = 0.5
Info: FEP ELEC. ACTIVE FOR EXNIHILATED PARTICLES BETWEEN LAMBDA = 0.5 AND LAMBDA = 1
Info: FEP VDW ACTIVE FOR ANNIHILATED PARTICLES BETWEEN LAMBDA = 0 AND LAMBDA = 1
Info: FEP VDW ACTIVE FOR EXNIHILATED PARTICLES BETWEEN LAMBDA = 0 AND LAMBDA = 1
Info: FEP BOND ACTIVE FOR ANNIHILATED PARTICLES BETWEEN LAMBDA = 1 AND LAMBDA = 1
Info: FEP BOND ACTIVE FOR EXNIHILATED PARTICLES BETWEEN LAMBDA = 0 AND LAMBDA = 0
Info: LANGEVIN DYNAMICS ACTIVE
Info: LANGEVIN TEMPERATURE   300
Info: LANGEVIN USING BBK INTEGRATOR
Info: LANGEVIN DAMPING COEFFICIENT IS 1 INVERSE PS
Info: LANGEVIN DYNAMICS APPLIED TO HYDROGENS
Info: LANGEVIN PISTON PRESSURE CONTROL ACTIVE
Info:        TARGET PRESSURE IS 1.01325 BAR
Info:     OSCILLATION PERIOD IS 50 FS
Info:             DECAY TIME IS 25 FS
Info:     PISTON TEMPERATURE IS 300 K
Info:       PRESSURE CONTROL IS GROUP-BASED
Info:    INITIAL STRAIN RATE IS 0.000202534 0.000202534 0.000202534
Info:       CELL FLUCTUATION IS ISOTROPIC
Info: PARTICLE MESH EWALD (PME) ACTIVE
Info: PME TOLERANCE               1e-06
Info: PME EWALD COEFFICIENT       0.348832
Info: PME INTERPOLATION ORDER     4
Info: PME GRID DIMENSIONS         32 36 32
Info: PME MAXIMUM GRID SPACING    1
Info: PME CALCULATION WILL BE PERFORMED ON GPU
Info: FULL ELECTROSTATIC EVALUATION FREQUENCY      2
Info: USING VERLET I (r-RESPA) MTS SCHEME.
Info: C1 SPLITTING OF LONG RANGE ELECTROSTATICS
Info: PLACING ATOMS IN PATCHES BY HYDROGEN GROUPS
Info: RIGID BONDS TO HYDROGEN : ALL
Info:         ERROR TOLERANCE : 1e-08
Info:          MAX ITERATIONS : 100
Info: RIGID WATER USING SETTLE ALGORITHM
Info: RANDOM NUMBER SEED     1744102018
Info: USE HYDROGEN BONDS?    NO
Info: Using AMBER format force field!
Info: AMBER PARM FILE        mobley_7754849.prmtop
Info: COORDINATE PDB         mobley_7754849.pdb
Info: Exclusions will be read from PARM file!
Info: SCNB (VDW SCALING)     2
Info: USING ARITHMETIC MEAN TO COMBINE L-J SIGMA PARAMETERS
Info: BINARY COORDINATES     mobley_7754849_equil.coor
Info: SUMMARY OF PARAMETERS:
Info: 11 BONDS
Info: 15 ANGLES
Info:   15 HARMONIC
Info:   0 COSINE-BASED
Info: 10 DIHEDRAL
Info: 0 IMPROPER
Info: 0 CROSSTERM
Info: 0 VDW
Info: 45 VDW_PAIRS
Info: 0 NBTHOLE_PAIRS
Info: To read alchdata from file: mobley_7754849.pdb
Info: To read alchflag data from column: 5
Info: STRUCTURE SUMMARY:
Info: 2909 ATOMS
Info: 2908 BONDS
Info: 72 ANGLES
Info: 92 DIHEDRALS
Info: 0 IMPROPERS
Info: 0 CROSSTERMS
Info: 3052 EXCLUSIONS
Info: 2890 RIGID BONDS
Info: ALCH: 0 ATOMS TO DISAPPEAR IN FINAL STATE
Info: ALCH: 41 ATOMS TO APPEAR IN FINAL STATE
Info: 5837 DEGREES OF FREEDOM
Info: 975 HYDROGEN GROUPS
Info: 4 ATOMS IN LARGEST HYDROGEN GROUP
Info: 975 MIGRATION GROUPS
Info: 4 ATOMS IN LARGEST MIGRATION GROUP
Info: TOTAL MASS = 17607.7 amu
Info: TOTAL CHARGE = 0.000399947 e
Info: MASS DENSITY = 0.96 g/cm^3
Info: ATOM DENSITY = 0.0955107 atoms/A^3
Info: ADDED 0 IMPLICIT EXCLUSIONS
Info: NONBONDED TABLE R-SQUARED SPACING: 0.0625
Info: NONBONDED TABLE SIZE: 705 POINTS
Info: REMOVING COM VELOCITY -0.0425599 0.138501 0.279502
Info: Use 3D box decompostion in PME FFT.
Info: Updated CUDA force table with 4096 elements.
Info: Updated CUDA LJ table with 9 x 9 elements.
Info: Found 39 unique exclusion lists needing 188 bytes
TCL: Running for 1500000 steps
ETITLE: TS BOND ANGLE DIHED IMPRP ELECT VDW BOUNDARY MISC KINETIC TOTAL TEMP POTENTIAL TOTALAVG TEMPAVG PRESSURE GPRESSURE VOLUME PRESSAVG GPRESSAVG
ENERGY: 0 5.7748 23.2686 42.0820 0.0000 -10492.4106 1358.8218 0.0000 0.0000 1704.4215 -7358.0420 293.8852 -9062.4634 -7358.0420 293.8852 -522.3854 -454.0617 30457.3219 -522.3854 -454.0617
ENERGY: 300000 7.6744 17.6313 43.1237 0.0000 -10497.5524 1379.9967 0.0000 0.0000 1660.9269 -7388.1994 286.3856 -9049.1263 -7335.9068 294.1736 -223.0005 -152.0596 29369.2414 -135.3430 -69.6414
ENERGY: 600000 2.4063 26.9932 42.0048 0.0000 -10552.8014 1426.9980 0.0000 0.0000 1703.6193 -7350.7797 293.7469 -9054.3990 -7341.1358 295.1451 73.7423 155.8196 29703.3271 -48.3698 22.6005
ENERGY: 900000 4.8390 27.5253 42.1334 0.0000 -10427.9514 1324.5716 0.0000 0.0000 1733.5159 -7295.3661 298.9018 -9028.8820 -7339.2243 297.3014 -348.8949 -326.9232 29530.6149 -115.3486 -57.3082
ENERGY: 1200000 5.3349 18.6151 41.6799 0.0000 -10666.1632 1468.9331 0.0000 0.0000 1691.7534 -7439.8468 291.7009 -9131.6001 -7357.2306 297.2155 460.3509 524.9396 29130.5076 4.3965 61.3631
ENERGY: 1500000 4.2822 19.3090 47.9410 0.0000 -10445.8661 1309.9373 0.0000 0.0000 1689.1471 -7375.2495 291.2515 -9064.3966 -7357.9852 296.7152 -994.7343 -843.6104 29857.0127 -88.9819 -22.7736
TCL: Running FEP window   2: Lambda1 0.05   Lambda2 0.1    [dLambda 0.05  ]
TCL: Setting parameter firsttimestep to 0
TCL: Setting parameter alchLambda to 0.05
Info: NONBONDED TABLE R-SQUARED SPACING: 0.0625
Info: NONBONDED TABLE SIZE: 705 POINTS
TCL: Setting parameter alchLambda2 to 0.1
Info: NONBONDED TABLE R-SQUARED SPACING: 0.0625
Info: NONBONDED TABLE SIZE: 705 POINTS
TCL: Running for 1500000 steps
ETITLE: TS BOND ANGLE DIHED IMPRP ELECT VDW BOUNDARY MISC KINETIC TOTAL TEMP POTENTIAL TOTALAVG TEMPAVG PRESSURE GPRESSURE VOLUME PRESSAVG GPRESSAVG
ENERGY: 0 4.2822 19.3090 47.9410 0.0000 -10445.8671 1316.5525 0.0000 0.0000 1688.2683 -7369.5141 291.1000 -9057.7823 -7369.5141 291.1000 -914.4117 -820.4365 29857.0127 -914.4117 -820.4365
ENERGY: 300000 5.5334 22.6408 43.7776 0.0000 -10527.0501 1420.8943 0.0000 0.0000 1737.8525 -7296.3514 299.6495 -9034.2039 -7311.1649 298.7478 227.3781 221.0625 29919.8345 -87.0401 -59.5880
ENERGY: 600000 12.2528 16.2377 46.4064 0.0000 -10725.0031 1542.6702 0.0000 0.0000 1730.8347 -7376.6012 298.4395 -9107.4359 -7327.9835 299.0827 723.5851 819.4418 29534.9927 -53.0592 1.2547
ENERGY: 900000 7.7689 28.7039 46.6834 0.0000 -10549.7613 1450.7338 0.0000 0.0000 1724.7408 -7291.1305 297.3887 -9015.8713 -7321.0576 300.5218 213.1183 271.6450 29973.8410 -22.2284 33.9057
ENERGY: 1200000 4.6996 27.6363 43.9782 0.0000 -10474.4908 1394.2364 0.0000 0.0000 1748.3791 -7255.5612 301.4646 -9003.9403 -7316.0191 300.9142 139.7801 188.9119 29296.0461 7.8098 60.4051
ENERGY: 1500000 4.2321 21.7181 47.0630 0.0000 -10617.3795 1410.9499 0.0000 0.0000 1703.0144 -7430.4019 293.6426 -9133.4163 -7331.1538 300.2504 -457.9568 -454.9583 30476.2722 -9.3615 40.9721
TCL: Running FEP window   3: Lambda1 0.1    Lambda2 0.15000000000000002 [dLambda 0.05000000000000002]
TCL: Setting parameter firsttimestep to 0
TCL: Setting parameter alchLambda to 0.1
Info: NONBONDED TABLE R-SQUARED SPACING: 0.0625
Info: NONBONDED TABLE SIZE: 705 POINTS
TCL: Setting parameter alchLambda2 to 0.15000000000000002
Info: NONBONDED TABLE R-SQUARED SPACING: 0.0625
Info: NONBONDED TABLE SIZE: 705 POINTS
TCL: Running for 1500000 steps
ETITLE: TS BOND ANGLE DIHED IMPRP ELECT VDW BOUNDARY MISC KINETIC TOTAL TEMP POTENTIAL TOTALAVG TEMPAVG PRESSURE GPRESSURE VOLUME PRESSAVG GPRESSAVG
ENERGY: 0 4.2321 21.7181 47.0630 0.0000 -10617.3801 1415.2370 0.0000 0.0000 1702.1622 -7426.9677 293.4956 -9129.1298 -7426.9677 293.4956 -522.4298 -434.8832 30476.2722 -522.4298 -434.8832
ENERGY: 300000 3.1495 18.9628 46.1874 0.0000 -10623.3204 1429.6758 0.0000 0.0000 1698.8581 -7426.4868 292.9259 -9125.3449 -7365.0168 299.6584 -120.3850 -44.3278 29719.7132 -48.5173 35.2507
ENERGY: 600000 4.4383 23.1087 47.0387 0.0000 -10635.8226 1437.3277 0.0000 0.0000 1713.7313 -7410.1778 295.4904 -9123.9091 -7361.5251 300.5911 495.8576 531.9551 29277.5421 -18.8100 49.2081
ENERGY: 900000 4.6062 26.4298 47.0550 0.0000 -10543.8968 1465.6051 0.0000 0.0000 1776.5176 -7223.6832 306.3164 -9000.2008 -7356.5004 300.8890 1031.9073 1105.7451 29248.4456 48.7835 106.4844
ENERGY: 1200000 4.3712 19.3759 42.7626 0.0000 -10621.9430 1459.7590 0.0000 0.0000 1685.1969 -7410.4774 290.5704 -9095.6743 -7362.4742 299.7941 279.3518 310.5619 29697.9470 89.3013 140.6077
ENERGY: 1500000 4.5638 22.8349 42.3317 0.0000 -10582.8128 1427.9029 0.0000 0.0000 1759.2878 -7325.8918 303.3455 -9085.1796 -7350.3752 299.9932 273.0975 266.2785 29491.0538 49.8828 91.6990
TCL: Running FEP window   4: Lambda1 0.15000000000000002 Lambda2 0.2    [dLambda 0.04999999999999999]
TCL: Setting parameter firsttimestep to 0
TCL: Setting parameter alchLambda to 0.15000000000000002
Info: NONBONDED TABLE R-SQUARED SPACING: 0.0625
Info: NONBONDED TABLE SIZE: 705 POINTS
TCL: Setting parameter alchLambda2 to 0.2
Info: NONBONDED TABLE R-SQUARED SPACING: 0.0625
Info: NONBONDED TABLE SIZE: 705 POINTS
TCL: Running for 1500000 steps
ETITLE: TS BOND ANGLE DIHED IMPRP ELECT VDW BOUNDARY MISC KINETIC TOTAL TEMP POTENTIAL TOTALAVG TEMPAVG PRESSURE GPRESSURE VOLUME PRESSAVG GPRESSAVG
ENERGY: 0 4.5638 22.8349 42.3317 0.0000 -10582.8129 1429.7441 0.0000 0.0000 1758.4331 -7324.9053 303.1981 -9083.3384 -7324.9053 303.1981 209.3189 282.7154 29491.0538 209.3189 282.7154
ENERGY: 300000 5.2824 24.7933 50.5349 0.0000 -10523.6580 1419.4501 0.0000 0.0000 1773.6254 -7249.9719 305.8177 -9023.5973 -7315.8187 302.5745 407.1069 423.6422 29619.3897 -74.8085 -32.5438
ENERGY: 600000 2.6717 26.4932 45.5819 0.0000 -10555.1496 1411.5242 0.0000 0.0000 1740.5553 -7328.3234 300.1156 -9068.8786 -7328.9828 302.4593 90.5308 152.1396 29811.4601 93.4938 143.1444
ENERGY: 900000 5.4991 27.2901 46.0218 0.0000 -10647.6594 1502.6978 0.0000 0.0000 1800.6025 -7265.5481 310.4692 -9066.1506 -7331.0191 302.9422 857.4210 883.6851 29932.9542 57.1646 109.2334
ENERGY: 1200000 6.5392 19.5063 44.4091 0.0000 -10696.7160 1536.1725 0.0000 0.0000 1772.8053 -7317.2837 305.6763 -9090.0890 -7326.2767 302.5428 1049.1653 1133.5546 29339.5747 149.0913 215.1864
ENERGY: 1500000 10.0701 22.7238 48.8412 0.0000 -10531.4350 1457.6090 0.0000 0.0000 1752.3793 -7239.8116 302.1543 -8992.1909 -7322.9778 302.1364 451.5824 521.1727 29603.2641 103.5214 166.3038
TCL: Running FEP window   5: Lambda1 0.2    Lambda2 0.25   [dLambda 0.04999999999999999]
TCL: Setting parameter firsttimestep to 0
TCL: Setting parameter alchLambda to 0.2
Info: NONBONDED TABLE R-SQUARED SPACING: 0.0625
Info: NONBONDED TABLE SIZE: 705 POINTS
TCL: Setting parameter alchLambda2 to 0.25
Info: NONBONDED TABLE R-SQUARED SPACING: 0.0625
Info: NONBONDED TABLE SIZE: 705 POINTS
TCL: Running for 1500000 steps
ETITLE: TS BOND ANGLE DIHED IMPRP ELECT VDW BOUNDARY MISC KINETIC TOTAL TEMP POTENTIAL TOTALAVG TEMPAVG PRESSURE GPRESSURE VOLUME PRESSAVG GPRESSAVG
ENERGY: 0 10.0701 22.7238 48.8412 0.0000 -10531.4355 1458.8955 0.0000 0.0000 1751.5220 -7239.3830 302.0065 -8990.9049 -7239.3830 302.0065 460.6309 534.4192 29603.2641 460.6309 534.4192
ENERGY: 300000 4.4510 20.8660 47.0066 0.0000 -10714.2935 1492.2821 0.0000 0.0000 1751.8346 -7397.8533 302.0604 -9149.6879 -7327.3525 302.0136 510.4218 554.1414 29765.2852 -109.6964 -81.7556
ENERGY: 600000 12.4710 24.2869 43.9810 0.0000 -10700.5498 1541.9422 0.0000 0.0000 1697.2098 -7380.6590 292.6417 -9077.8688 -7328.8547 299.5785 1368.9278 1386.3765 29484.2508 84.9036 112.4015
ENERGY: 900000 3.2044 19.4208 43.6262 0.0000 -10551.5324 1396.8965 0.0000 0.0000 1680.0529 -7408.3316 289.6834 -9088.3845 -7346.5455 298.2471 -168.1562 -93.4184 29652.8878 -91.2037 -44.9153
ENERGY: 1200000 4.1987 25.1489 47.5363 0.0000 -10565.0639 1403.3269 0.0000 0.0000 1736.2024 -7348.6507 299.3650 -9084.8531 -7350.0515 298.7532 -26.2812 50.9338 29760.2019 -31.2134 20.1229
ENERGY: 1500000 5.3755 16.1996 45.8223 0.0000 -10446.3669 1339.3812 0.0000 0.0000 1740.9773 -7298.6110 300.1883 -9039.5882 -7344.3702 298.5907 -468.6096 -370.8898 29679.3418 -59.7417 -1.7326
TCL: Running FEP window   6: Lambda1 0.25   Lambda2 0.3    [dLambda 0.04999999999999999]
TCL: Setting parameter firsttimestep to 0
TCL: Setting parameter alchLambda to 0.25
Info: NONBONDED TABLE R-SQUARED SPACING: 0.0625
Info: NONBONDED TABLE SIZE: 705 POINTS
TCL: Setting parameter alchLambda2 to 0.3
Info: NONBONDED TABLE R-SQUARED SPACING: 0.0625
Info: NONBONDED TABLE SIZE: 705 POINTS
TCL: Running for 1500000 steps
ETITLE: TS BOND ANGLE DIHED IMPRP ELECT VDW BOUNDARY MISC KINETIC TOTAL TEMP POTENTIAL TOTALAVG TEMPAVG PRESSURE GPRESSURE VOLUME PRESSAVG GPRESSAVG
ENERGY: 0 5.3755 16.1995 45.8223 0.0000 -10446.3658 1339.4700 0.0000 0.0000 1740.1292 -7299.3692 300.0421 -9039.4984 -7299.3692 300.0421 -454.4230 -360.2880 29679.3418 -454.4230 -360.2880
ENERGY: 300000 8.1381 20.6508 47.8159 0.0000 -10465.9437 1369.2051 0.0000 0.0000 1789.3032 -7230.8305 308.5209 -9020.1337 -7313.5429 302.5772 -241.4725 -180.3663 30387.9979 -295.0596 -236.2982
ENERGY: 600000 5.4681 19.2352 50.0469 0.0000 -10611.8266 1494.7146 0.0000 0.0000 1815.0449 -7227.3169 312.9594 -9042.3617 -7296.4865 304.3105 661.7456 717.0426 29875.5875 -422.8699 -359.9341
ENERGY: 900000 4.7772 18.9088 45.7233 0.0000 -10603.6747 1419.7255 0.0000 0.0000 1725.6748 -7388.8651 297.5498 -9114.5399 -7320.2919 302.4678 -58.3047 -25.2929 29652.8159 -272.7922 -213.6682
ENERGY: 1200000 8.3101 23.5848 49.6608 0.0000 -10527.5926 1422.7527 0.0000 0.0000 1773.9510 -7249.3332 305.8738 -9023.2842 -7318.4863 301.8466 236.9199 279.9035 30094.8785 -189.7593 -133.0893
ENERGY: 1500000 5.0909 20.0719 46.6844 0.0000 -10415.6767 1316.4069 0.0000 0.0000 1728.6892 -7298.7333 298.0695 -9027.4225 -7318.2066 301.5504 -612.8137 -563.1148 29774.8294 -264.7342 -204.7780
TCL: Running FEP window   7: Lambda1 0.3    Lambda2 0.35   [dLambda 0.04999999999999999]
TCL: Setting parameter firsttimestep to 0
TCL: Setting parameter alchLambda to 0.3
Info: NONBONDED TABLE R-SQUARED SPACING: 0.0625
Info: NONBONDED TABLE SIZE: 705 POINTS
TCL: Setting parameter alchLambda2 to 0.35
Info: NONBONDED TABLE R-SQUARED SPACING: 0.0625
Info: NONBONDED TABLE SIZE: 705 POINTS
TCL: Running for 1500000 steps
ETITLE: TS BOND ANGLE DIHED IMPRP ELECT VDW BOUNDARY MISC KINETIC TOTAL TEMP POTENTIAL TOTALAVG TEMPAVG PRESSURE GPRESSURE VOLUME PRESSAVG GPRESSAVG
ENERGY: 0 5.0909 20.0719 46.6844 0.0000 -10415.6752 1316.7885 0.0000 0.0000 1727.8616 -7299.1779 297.9268 -9027.0394 -7299.1779 297.9268 -634.5362 -548.6861 29774.8294 -634.5362 -548.6861
ENERGY: 300000 4.4110 21.3715 45.3674 0.0000 -10654.9439 1496.7828 0.0000 0.0000 1717.2806 -7369.7306 296.1024 -9087.0112 -7347.1737 296.6338 681.6554 748.0819 29829.9475 129.4908 188.1529
ENERGY: 600000 5.9570 25.1935 46.8636 0.0000 -10515.4015 1338.4668 0.0000 0.0000 1730.9537 -7367.9669 298.4600 -9098.9206 -7374.8228 295.9588 -849.1867 -780.3891 29712.5715 -65.3916 -6.0960
ENERGY: 900000 8.2953 21.1550 51.9406 0.0000 -10433.1923 1297.7363 0.0000 0.0000 1725.4105 -7328.6545 297.5042 -9054.0650 -7356.2837 296.2553 -935.8402 -888.2417 30363.6280 -183.7985 -126.3725
ENERGY: 1200000 8.6279 26.4115 47.0857 0.0000 -10529.6957 1337.5387 0.0000 0.0000 1766.7454 -7343.2864 304.6314 -9110.0318 -7351.3052 297.0189 -614.3433 -590.1443 29665.4607 -203.2863 -147.6711
ENERGY: 1500000 7.0422 25.0674 41.5822 0.0000 -10574.0918 1404.1512 0.0000 0.0000 1726.9442 -7369.3046 297.7687 -9096.2488 -7348.6478 297.4905 -61.1836 16.5986 29740.3680 -148.1138 -88.2073
TCL: Running FEP window   8: Lambda1 0.35   Lambda2 0.39999999999999997 [dLambda 0.04999999999999999]
TCL: Setting parameter firsttimestep to 0
TCL: Setting parameter alchLambda to 0.35
Info: NONBONDED TABLE R-SQUARED SPACING: 0.0625
Info: NONBONDED TABLE SIZE: 705 POINTS
TCL: Setting parameter alchLambda2 to 0.39999999999999997
Info: NONBONDED TABLE R-SQUARED SPACING: 0.0625
Info: NONBONDED TABLE SIZE: 705 POINTS
TCL: Running for 1500000 steps
ETITLE: TS BOND ANGLE DIHED IMPRP ELECT VDW BOUNDARY MISC KINETIC TOTAL TEMP POTENTIAL TOTALAVG TEMPAVG PRESSURE GPRESSURE VOLUME PRESSAVG GPRESSAVG
ENERGY: 0 7.0422 25.0674 41.5822 0.0000 -10574.0918 1404.1778 0.0000 0.0000 1726.0733 -7370.1489 297.6185 -9096.2222 -7370.1489 297.6185 -56.7889 28.4648 29740.3680 -56.7889 28.4648
ENERGY: 300000 4.0486 13.3459 43.9343 0.0000 -10362.0533 1288.5439 0.0000 0.0000 1736.4898 -7275.6909 299.4146 -9012.1807 -7308.1233 304.4952 -582.9505 -460.7172 29888.5505 -157.4388 -73.2010
ENERGY: 600000 8.3664 22.2688 49.0271 0.0000 -10515.3632 1432.9928 0.0000 0.0000 1792.3164 -7210.3917 309.0405 -9002.7081 -7300.6238 303.3518 365.4630 446.5331 30191.0646 -69.8233 11.0397
ENERGY: 900000 5.7352 18.5768 50.9752 0.0000 -10513.9873 1340.2496 0.0000 0.0000 1746.5033 -7351.9473 301.1411 -9098.4505 -7320.6710 300.9145 -344.1613 -320.8165 29658.3278 -18.7124 58.9586
ENERGY: 1200000 7.7106 19.2473 47.7383 0.0000 -10463.2411 1361.3582 0.0000 0.0000 1694.9361 -7332.2506 292.2497 -9027.1867 -7336.2906 299.3446 -36.0774 -5.7314 29395.6757 -18.8452 54.9203
ENERGY: 1500000 6.8791 19.8208 41.1469 0.0000 -10504.9761 1387.0836 0.0000 0.0000 1745.9479 -7304.0978 301.0454 -9050.0457 -7328.5532 299.6978 -282.9414 -232.4870 29773.7347 -130.0893 -58.6408
TCL: Running FEP window   9: Lambda1 0.39999999999999997 Lambda2 0.44999999999999996 [dLambda 0.04999999999999999]
TCL: Setting parameter firsttimestep to 0
TCL: Setting parameter alchLambda to 0.39999999999999997
Info: NONBONDED TABLE R-SQUARED SPACING: 0.0625
Info: NONBONDED TABLE SIZE: 705 POINTS
TCL: Setting parameter alchLambda2 to 0.44999999999999996
Info: NONBONDED TABLE R-SQUARED SPACING: 0.0625
Info: NONBONDED TABLE SIZE: 705 POINTS
TCL: Running for 1500000 steps
ETITLE: TS BOND ANGLE DIHED IMPRP ELECT VDW BOUNDARY MISC KINETIC TOTAL TEMP POTENTIAL TOTALAVG TEMPAVG PRESSURE GPRESSURE VOLUME PRESSAVG GPRESSAVG
ENERGY: 0 6.8791 19.8208 41.1469 0.0000 -10504.9749 1387.4923 0.0000 0.0000 1745.1125 -7304.5233 300.9013 -9049.6357 -7304.5233 300.9013 -287.2052 -216.8205 29773.7347 -287.2052 -216.8205
ENERGY: 300000 4.2644 22.1061 42.1824 0.0000 -10509.6876 1399.3579 0.0000 0.0000 1739.1810 -7302.5959 299.8786 -9041.7768 -7318.8557 301.1245 -70.1975 -30.8265 30075.2593 -255.4422 -182.3026
ENERGY: 600000 5.4773 20.8123 44.3296 0.0000 -10529.5476 1412.1320 0.0000 0.0000 1744.8678 -7301.9285 300.8592 -9046.7963 -7331.5701 299.0859 -15.0152 47.8133 30019.0097 -108.6190 -44.0951
ENERGY: 900000 7.0912 18.8827 45.5772 0.0000 -10527.2699 1343.2448 0.0000 0.0000 1701.8527 -7410.6214 293.4423 -9112.4741 -7337.3827 299.7255 -626.1482 -501.8318 29888.2711 -163.4112 -92.8583
ENERGY: 1200000 9.0648 16.4382 43.3465 0.0000 -10408.6038 1355.7581 0.0000 0.0000 1787.5056 -7196.4907 308.2110 -8983.9962 -7327.2998 300.4800 -162.3439 -100.2704 30098.5792 -92.0988 -28.4027
ENERGY: 1500000 9.3329 21.4058 48.8472 0.0000 -10608.7406 1428.7643 0.0000 0.0000 1756.8461 -7343.5444 302.9245 -9100.3905 -7331.8347 299.9083 -214.7750 -208.1640 30145.3856 -91.6780 -25.8290
TCL: Running FEP window  10: Lambda1 0.44999999999999996 Lambda2 0.49999999999999994 [dLambda 0.04999999999999999]
TCL: Setting parameter firsttimestep to 0
TCL: Setting parameter alchLambda to 0.44999999999999996
Info: NONBONDED TABLE R-SQUARED SPACING: 0.0625
Info: NONBONDED TABLE SIZE: 705 POINTS
TCL: Setting parameter alchLambda2 to 0.49999999999999994
Info: NONBONDED TABLE R-SQUARED SPACING: 0.0625
Info: NONBONDED TABLE SIZE: 705 POINTS
TCL: Running for 1500000 steps
ETITLE: TS BOND ANGLE DIHED IMPRP ELECT VDW BOUNDARY MISC KINETIC TOTAL TEMP POTENTIAL TOTALAVG TEMPAVG PRESSURE GPRESSURE VOLUME PRESSAVG GPRESSAVG
ENERGY: 0 9.3329 21.4058 48.8472 0.0000 -10608.7398 1430.0490 0.0000 0.0000 1755.9631 -7343.1417 302.7723 -9099.1048 -7343.1417 302.7723 -263.4811 -185.8409 30145.3856 -263.4811 -185.8409
ENERGY: 300000 6.4248 21.2457 46.0144 0.0000 -10524.7117 1408.1904 0.0000 0.0000 1738.9319 -7303.9045 299.8357 -9042.8364 -7329.0304 299.1590 173.0437 193.4772 29973.8683 -42.0910 24.2997
ENERGY: 600000 3.1720 31.0078 44.7764 0.0000 -10420.8021 1364.6741 0.0000 0.0000 1782.3008 -7194.8709 307.3135 -8977.1717 -7308.2148 299.5111 372.6326 404.3294 29652.0938 -70.5306 -17.0192
ENERGY: 900000 3.8424 24.1836 41.8529 0.0000 -10589.4735 1409.6849 0.0000 0.0000 1750.3428 -7359.5667 301.8032 -9109.9095 -7323.9554 300.6880 -51.5806 69.1053 29839.7666 -50.4354 2.8884
ENERGY: 1200000 3.1539 19.8459 45.8113 0.0000 -10492.4741 1410.7492 0.0000 0.0000 1758.2909 -7254.6230 303.1736 -9012.9138 -7317.4773 300.4249 -195.4486 -140.2094 30528.7397 -138.0635 -79.8886
ENERGY: 1500000 4.4655 22.0272 46.1280 0.0000 -10593.1120 1441.2103 0.0000 0.0000 1750.8844 -7328.3966 301.8966 -9079.2810 -7322.0301 300.1114 390.7536 439.2487 29834.2607 -131.7522 -70.2842
TCL: Running FEP window  11: Lambda1 0.49999999999999994 Lambda2 0.5499999999999999 [dLambda 0.04999999999999999]
TCL: Setting parameter firsttimestep to 0
TCL: Setting parameter alchLambda to 0.49999999999999994
Info: NONBONDED TABLE R-SQUARED SPACING: 0.0625
Info: NONBONDED TABLE SIZE: 705 POINTS
TCL: Setting parameter alchLambda2 to 0.5499999999999999
Info: NONBONDED TABLE R-SQUARED SPACING: 0.0625
Info: NONBONDED TABLE SIZE: 705 POINTS
TCL: Running for 1500000 steps
ETITLE: TS BOND ANGLE DIHED IMPRP ELECT VDW BOUNDARY MISC KINETIC TOTAL TEMP POTENTIAL TOTALAVG TEMPAVG PRESSURE GPRESSURE VOLUME PRESSAVG GPRESSAVG
ENERGY: 0 4.4655 22.0272 46.1280 0.0000 -10593.1137 1442.5390 0.0000 0.0000 1750.0308 -7327.9232 301.7494 -9077.9540 -7327.9232 301.7494 386.9444 465.8206 29834.2607 386.9444 465.8206
ENERGY: 300000 7.3318 15.5400 44.2490 0.0000 -10584.2622 1455.5686 0.0000 0.0000 1747.5917 -7313.9811 301.3288 -9061.5728 -7325.1851 298.0149 424.5758 553.5173 29815.2653 64.5545 165.2458
ENERGY: 600000 6.0616 19.7059 44.5684 0.0000 -10572.5151 1452.6570 0.0000 0.0000 1762.2973 -7287.2249 303.8644 -9049.5222 -7315.8508 300.2005 432.5742 472.0689 30123.7702 57.8925 152.7167
ENERGY: 900000 4.8224 21.2316 43.3972 0.0000 -10514.2969 1375.2376 0.0000 0.0000 1737.3652 -7332.2428 299.5655 -9069.6080 -7317.6924 299.4720 -386.7354 -333.2034 30114.6707 -18.1840 55.4496
ENERGY: 1200000 4.8710 21.0969 46.4115 0.0000 -10485.1449 1380.9850 0.0000 0.0000 1694.4534 -7337.3270 292.1664 -9031.7804 -7327.8462 299.2435 -189.1903 -105.3269 30154.9778 -35.7302 39.6125
ENERGY: 1500000 8.1645 23.0955 43.0519 0.0000 -10485.6304 1339.6935 0.0000 0.0000 1794.1916 -7277.4336 309.3638 -9071.6251 -7324.1665 300.3349 -459.0473 -479.6323 30503.2663 -104.4348 -34.9856
TCL: Running FEP window  12: Lambda1 0.5499999999999999 Lambda2 0.6    [dLambda 0.050000000000000044]
TCL: Setting parameter firsttimestep to 0
TCL: Setting parameter alchLambda to 0.5499999999999999
Info: NONBONDED TABLE R-SQUARED SPACING: 0.0625
Info: NONBONDED TABLE SIZE: 705 POINTS
TCL: Setting parameter alchLambda2 to 0.6
Info: NONBONDED TABLE R-SQUARED SPACING: 0.0625
Info: NONBONDED TABLE SIZE: 705 POINTS
TCL: Running for 1500000 steps
ETITLE: TS BOND ANGLE DIHED IMPRP ELECT VDW BOUNDARY MISC KINETIC TOTAL TEMP POTENTIAL TOTALAVG TEMPAVG PRESSURE GPRESSURE VOLUME PRESSAVG GPRESSAVG
ENERGY: 0 8.1645 23.0955 43.0519 0.0000 -10485.3179 1339.9994 0.0000 0.0000 1793.3531 -7277.6536 309.2192 -9071.0066 -7277.6536 309.2192 -547.9368 -458.6439 30503.2663 -547.9368 -458.6439
ENERGY: 300000 4.7996 23.7554 47.2315 0.0000 -10470.2318 1322.9450 0.0000 0.0000 1767.3730 -7304.1273 304.7396 -9071.5003 -7307.7879 302.2081 -489.2749 -423.1185 30124.8839 -389.4004 -315.5775
ENERGY: 600000 3.9671 21.3767 49.1051 0.0000 -10572.0754 1369.5771 0.0000 0.0000 1789.9711 -7338.0783 308.6361 -9128.0494 -7324.7451 300.9071 -384.9350 -331.6401 29902.5891 -367.6213 -294.1783
ENERGY: 900000 4.5667 24.6816 43.7911 0.0000 -10390.8035 1321.7864 0.0000 0.0000 1727.4615 -7268.5162 297.8579 -8995.9778 -7311.2919 301.3835 -414.3514 -324.7742 29938.5006 -300.9892 -231.7559
ENERGY: 1200000 5.1742 22.4640 43.9495 0.0000 -10589.0514 1439.3690 0.0000 0.0000 1771.8680 -7306.2267 305.5147 -9078.0947 -7315.2473 301.7689 538.0830 549.4273 29875.0686 -180.3067 -112.2923
ENERGY: 1500000 4.2509 19.0732 46.9656 0.0000 -10546.3585 1409.8097 0.0000 0.0000 1676.6025 -7389.6565 289.0885 -9066.2590 -7318.3000 300.9038 388.2674 425.9178 29655.6287 -118.4398 -54.7640
TCL: Running FEP window  13: Lambda1 0.6    Lambda2 0.65   [dLambda 0.050000000000000044]
TCL: Setting parameter firsttimestep to 0
TCL: Setting parameter alchLambda to 0.6
Info: NONBONDED TABLE R-SQUARED SPACING: 0.0625
Info: NONBONDED TABLE SIZE: 705 POINTS
TCL: Setting parameter alchLambda2 to 0.65
Info: NONBONDED TABLE R-SQUARED SPACING: 0.0625
Info: NONBONDED TABLE SIZE: 705 POINTS
TCL: Running for 1500000 steps
ETITLE: TS BOND ANGLE DIHED IMPRP ELECT VDW BOUNDARY MISC KINETIC TOTAL TEMP POTENTIAL TOTALAVG TEMPAVG PRESSURE GPRESSURE VOLUME PRESSAVG GPRESSAVG
ENERGY: 0 4.2509 19.0733 46.9656 0.0000 -10547.6355 1410.4866 0.0000 0.0000 1675.7297 -7391.1294 288.9380 -9066.8592 -7391.1294 288.9380 370.5733 451.8263 29655.6287 370.5733 451.8263
ENERGY: 300000 5.4534 23.3376 41.3753 0.0000 -10545.5456 1321.9096 0.0000 0.0000 1758.2649 -7395.2049 303.1691 -9153.4697 -7372.5306 297.3672 -817.2996 -768.2895 29889.6855 -454.3883 -395.2075
ENERGY: 600000 5.6828 15.2366 46.2216 0.0000 -10461.5777 1373.6693 0.0000 0.0000 1771.3000 -7249.4674 305.4167 -9020.7674 -7360.8328 297.9731 18.9802 143.7827 29836.6566 -187.3673 -123.7776
ENERGY: 900000 5.5368 24.9737 42.7296 0.0000 -10554.4487 1450.8066 0.0000 0.0000 1718.3447 -7312.0573 296.2859 -9030.4020 -7347.7564 298.7455 554.4441 614.0260 30011.1162 -32.3754 20.0690
ENERGY: 1200000 4.6198 29.7438 43.9024 0.0000 -10611.5323 1422.6281 0.0000 0.0000 1695.9551 -7414.6831 292.4254 -9110.6382 -7343.8076 298.6066 -32.9334 13.8891 29929.4535 -60.5905 -7.6150
ENERGY: 1500000 6.9865 18.7871 43.5875 0.0000 -10486.0884 1347.8485 0.0000 0.0000 1797.4953 -7271.3835 309.9334 -9068.8787 -7335.2395 300.4799 -327.5743 -274.5819 30135.1461 1.2125 56.3594
TCL: Running FEP window  14: Lambda1 0.65   Lambda2 0.7000000000000001 [dLambda 0.050000000000000044]
TCL: Setting parameter firsttimestep to 0
TCL: Setting parameter alchLambda to 0.65
Info: NONBONDED TABLE R-SQUARED SPACING: 0.0625
Info: NONBONDED TABLE SIZE: 705 POINTS
TCL: Setting parameter alchLambda2 to 0.7000000000000001
Info: NONBONDED TABLE R-SQUARED SPACING: 0.0625
Info: NONBONDED TABLE SIZE: 705 POINTS
TCL: Running for 1500000 steps
ETITLE: TS BOND ANGLE DIHED IMPRP ELECT VDW BOUNDARY MISC KINETIC TOTAL TEMP POTENTIAL TOTALAVG TEMPAVG PRESSURE GPRESSURE VOLUME PRESSAVG GPRESSAVG
ENERGY: 0 6.9865 18.7871 43.5875 0.0000 -10486.8255 1348.3096 0.0000 0.0000 1796.6453 -7272.5094 309.7869 -9069.1548 -7272.5094 309.7869 -336.7301 -253.0541 30135.1461 -336.7301 -253.0541
ENERGY: 300000 4.0829 15.6945 45.3254 0.0000 -10465.7581 1313.9706 0.0000 0.0000 1771.7073 -7314.9773 305.4870 -9086.6847 -7335.6094 304.2620 -574.1806 -530.3193 30108.8339 -218.6007 -164.7548
ENERGY: 600000 4.3493 24.2235 45.6457 0.0000 -10466.3783 1264.5941 0.0000 0.0000 1727.5924 -7399.9734 297.8804 -9127.5658 -7340.1697 301.9244 -920.6856 -812.4509 29528.0788 -196.4623 -129.1681
ENERGY: 900000 6.2256 20.3465 39.6893 0.0000 -10450.9519 1367.9984 0.0000 0.0000 1751.9994 -7264.6926 302.0888 -9016.6920 -7312.8667 301.7013 -41.7227 -29.6270 30069.7907 -121.1203 -62.3171
ENERGY: 1200000 4.1825 23.1788 47.1339 0.0000 -10498.1087 1355.2230 0.0000 0.0000 1728.4898 -7339.9007 298.0352 -9068.3905 -7333.1878 300.7182 -421.9704 -312.4931 29819.9676 -160.5476 -100.1867
ENERGY: 1500000 3.9465 28.1793 45.2936 0.0000 -10669.9403 1441.6994 0.0000 0.0000 1727.0918 -7423.7297 297.7941 -9150.8215 -7341.6478 300.3099 337.5721 381.1202 29734.1705 -136.8366 -76.3867
TCL: Running FEP window  15: Lambda1 0.7000000000000001 Lambda2 0.7500000000000001 [dLambda 0.050000000000000044]
TCL: Setting parameter firsttimestep to 0
TCL: Setting parameter alchLambda to 0.7000000000000001
Info: NONBONDED TABLE R-SQUARED SPACING: 0.0625
Info: NONBONDED TABLE SIZE: 705 POINTS
TCL: Setting parameter alchLambda2 to 0.7500000000000001
Info: NONBONDED TABLE R-SQUARED SPACING: 0.0625
Info: NONBONDED TABLE SIZE: 705 POINTS
TCL: Running for 1500000 steps
ETITLE: TS BOND ANGLE DIHED IMPRP ELECT VDW BOUNDARY MISC KINETIC TOTAL TEMP POTENTIAL TOTALAVG TEMPAVG PRESSURE GPRESSURE VOLUME PRESSAVG GPRESSAVG
ENERGY: 0 3.9465 28.1793 45.2936 0.0000 -10671.9153 1442.7812 0.0000 0.0000 1726.1990 -7425.5157 297.6402 -9151.7147 -7425.5157 297.6402 339.1538 411.8841 29734.1705 339.1538 411.8841
ENERGY: 300000 9.5388 37.1847 45.6809 0.0000 -10626.5589 1476.9272 0.0000 0.0000 1700.9651 -7356.2623 293.2892 -9057.2273 -7343.9043 298.7601 571.8256 604.1269 30365.2325 91.2342 141.3344
ENERGY: 600000 7.9865 25.1815 46.1523 0.0000 -10660.4424 1434.1317 0.0000 0.0000 1763.0645 -7383.9259 303.9967 -9146.9904 -7345.2490 298.7682 204.4317 318.7715 29587.5743 -86.5223 -12.1832
ENERGY: 900000 5.0963 24.9675 50.7076 0.0000 -10478.9719 1335.0919 0.0000 0.0000 1738.3384 -7324.7701 299.7333 -9063.1086 -7336.4003 299.6585 -534.6123 -326.1269 30284.9019 -258.6477 -177.5164
ENERGY: 1200000 9.9603 26.9063 39.8538 0.0000 -10635.3224 1461.4629 0.0000 0.0000 1730.4167 -7366.7224 298.3674 -9097.1391 -7335.9473 300.1116 630.3209 711.5039 29532.5115 -132.3742 -56.3104
ENERGY: 1500000 3.0178 27.7531 42.6622 0.0000 -10641.5778 1472.1251 0.0000 0.0000 1735.1156 -7360.9039 299.1776 -9096.0196 -7352.7102 298.7301 491.3536 553.7604 29818.9742 -119.6213 -41.8641
TCL: Running FEP window  16: Lambda1 0.7500000000000001 Lambda2 0.8000000000000002 [dLambda 0.050000000000000044]
TCL: Setting parameter firsttimestep to 0
TCL: Setting parameter alchLambda to 0.7500000000000001
Info: NONBONDED TABLE R-SQUARED SPACING: 0.0625
Info: NONBONDED TABLE SIZE: 705 POINTS
TCL: Setting parameter alchLambda2 to 0.8000000000000002
Info: NONBONDED TABLE R-SQUARED SPACING: 0.0625
Info: NONBONDED TABLE SIZE: 705 POINTS
TCL: Running for 1500000 steps
ETITLE: TS BOND ANGLE DIHED IMPRP ELECT VDW BOUNDARY MISC KINETIC TOTAL TEMP POTENTIAL TOTALAVG TEMPAVG PRESSURE GPRESSURE VOLUME PRESSAVG GPRESSAVG
ENERGY: 0 3.0178 27.7531 42.6622 0.0000 -10643.8533 1471.9074 0.0000 0.0000 1734.2767 -7364.2362 299.0330 -9098.5129 -7364.2362 299.0330 496.5825 572.4542 29818.9742 496.5825 572.4542
ENERGY: 300000 8.3537 25.8055 43.6271 0.0000 -10531.2840 1373.1286 0.0000 0.0000 1759.4002 -7320.9689 303.3649 -9080.3691 -7330.1759 300.3145 -236.1994 -204.8508 30114.1075 -2.6909 42.1807
ENERGY: 600000 2.5197 15.8911 46.0267 0.0000 -10661.0329 1439.8704 0.0000 0.0000 1717.7336 -7438.9913 296.1805 -9156.7249 -7354.3122 299.6262 133.0659 186.0217 30100.6694 86.2906 135.3906
ENERGY: 900000 3.8195 17.4435 41.4772 0.0000 -10537.0265 1441.6201 0.0000 0.0000 1694.5739 -7338.0923 292.1872 -9032.6662 -7346.2045 298.2599 355.2645 463.0535 30473.3640 26.9669 86.1455
ENERGY: 1200000 8.6685 16.5071 46.8595 0.0000 -10383.0918 1248.1877 0.0000 0.0000 1773.9514 -7288.9177 305.8739 -9062.8691 -7343.3838 299.4271 -1119.2406 -1015.5302 30065.1826 -15.9970 52.1201
ENERGY: 1500000 3.1207 25.1211 43.4940 0.0000 -10672.2813 1496.6834 0.0000 0.0000 1786.6272 -7317.2349 308.0595 -9103.8621 -7337.9194 300.6253 916.6775 947.1391 29799.1502 89.5633 154.7174
TCL: Running FEP window  17: Lambda1 0.8000000000000002 Lambda2 0.8500000000000002 [dLambda 0.050000000000000044]
TCL: Setting parameter firsttimestep to 0
TCL: Setting parameter alchLambda to 0.8000000000000002
Info: NONBONDED TABLE R-SQUARED SPACING: 0.0625
Info: NONBONDED TABLE SIZE: 705 POINTS
TCL: Setting parameter alchLambda2 to 0.8500000000000002
Info: NONBONDED TABLE R-SQUARED SPACING: 0.0625
Info: NONBONDED TABLE SIZE: 705 POINTS
TCL: Running for 1500000 steps
ETITLE: TS BOND ANGLE DIHED IMPRP ELECT VDW BOUNDARY MISC KINETIC TOTAL TEMP POTENTIAL TOTALAVG TEMPAVG PRESSURE GPRESSURE VOLUME PRESSAVG GPRESSAVG
ENERGY: 0 3.1207 25.1211 43.4940 0.0000 -10673.6422 1495.3272 0.0000 0.0000 1785.7244 -7320.8547 307.9039 -9106.5791 -7320.8547 307.9039 858.2192 948.0710 29799.1502 858.2192 948.0710
ENERGY: 300000 8.1802 16.8452 48.5232 0.0000 -10569.2039 1342.8344 0.0000 0.0000 1754.8646 -7397.9564 302.5828 -9152.8210 -7379.3676 299.5979 -636.6667 -466.2837 29825.9000 287.8527 402.9673
ENERGY: 600000 7.3675 19.5295 48.8215 0.0000 -10506.7106 1345.2107 0.0000 0.0000 1718.9570 -7366.8244 296.3915 -9085.7814 -7355.3091 301.4901 -249.4602 -123.5324 30025.6851 80.7496 197.4088
ENERGY: 900000 6.3107 25.5200 46.8391 0.0000 -10611.2195 1403.3619 0.0000 0.0000 1728.9418 -7400.2459 298.1131 -9129.1877 -7359.1154 301.0938 -17.8546 39.5287 29989.0262 -60.4739 38.3424
ENERGY: 1200000 4.1810 19.0894 49.3625 0.0000 -10621.8056 1394.4378 0.0000 0.0000 1748.0654 -7406.6695 301.4105 -9154.7350 -7349.6190 301.5155 -81.5948 0.9304 29836.8677 -104.1510 -12.0865
ENERGY: 1500000 4.9210 23.7046 42.9717 0.0000 -10444.5495 1293.8427 0.0000 0.0000 1766.1523 -7312.9572 304.5291 -9079.1095 -7350.0517 301.8559 -765.6682 -689.2352 29999.1696 -147.7709 -58.9922
TCL: Running FEP window  18: Lambda1 0.8500000000000002 Lambda2 0.9000000000000002 [dLambda 0.050000000000000044]
TCL: Setting parameter firsttimestep to 0
TCL: Setting parameter alchLambda to 0.8500000000000002
Info: NONBONDED TABLE R-SQUARED SPACING: 0.0625
Info: NONBONDED TABLE SIZE: 705 POINTS
TCL: Setting parameter alchLambda2 to 0.9000000000000002
Info: NONBONDED TABLE R-SQUARED SPACING: 0.0625
Info: NONBONDED TABLE SIZE: 705 POINTS
TCL: Running for 1500000 steps
ETITLE: TS BOND ANGLE DIHED IMPRP ELECT VDW BOUNDARY MISC KINETIC TOTAL TEMP POTENTIAL TOTALAVG TEMPAVG PRESSURE GPRESSURE VOLUME PRESSAVG GPRESSAVG
ENERGY: 0 4.9210 23.7046 42.9717 0.0000 -10447.0054 1294.3146 0.0000 0.0000 1765.2893 -7315.8041 304.3803 -9081.0935 -7315.8041 304.3803 -747.3042 -670.5154 29999.1696 -747.3042 -670.5154
ENERGY: 300000 4.6859 20.2457 49.0821 0.0000 -10608.6755 1448.2314 0.0000 0.0000 1736.4495 -7349.9810 299.4076 -9086.4304 -7356.1392 301.7978 722.0189 773.0305 29620.7202 81.8753 169.9429
ENERGY: 600000 9.8930 17.3479 44.4123 0.0000 -10646.3667 1446.7524 0.0000 0.0000 1765.7136 -7362.2475 304.4535 -9127.9611 -7350.6365 303.6451 412.5061 483.9253 30013.6738 46.8783 138.3214
ENERGY: 900000 8.1533 26.1784 40.5274 0.0000 -10723.5558 1488.3309 0.0000 0.0000 1737.0341 -7423.3316 299.5084 -9160.3658 -7346.6063 303.0521 698.4627 787.5509 29547.0547 90.8916 172.7187
ENERGY: 1200000 9.2266 22.1115 45.0486 0.0000 -10514.0400 1337.7793 0.0000 0.0000 1727.3463 -7372.5278 297.8380 -9099.8741 -7347.9235 303.5532 -814.5133 -769.1542 30496.9689 124.7285 197.7148
ENERGY: 1500000 4.3634 27.9792 42.4469 0.0000 -10477.4322 1328.3472 0.0000 0.0000 1721.1991 -7353.0965 296.7781 -9074.2956 -7347.6132 303.1479 -719.6825 -662.6096 30472.9941 69.2571 144.0658
TCL: Running FEP window  19: Lambda1 0.9000000000000002 Lambda2 0.9500000000000003 [dLambda 0.050000000000000044]
TCL: Setting parameter firsttimestep to 0
TCL: Setting parameter alchLambda to 0.9000000000000002
Info: NONBONDED TABLE R-SQUARED SPACING: 0.0625
Info: NONBONDED TABLE SIZE: 705 POINTS
TCL: Setting parameter alchLambda2 to 0.9500000000000003
Info: NONBONDED TABLE R-SQUARED SPACING: 0.0625
Info: NONBONDED TABLE SIZE: 705 POINTS
TCL: Running for 1500000 steps
ETITLE: TS BOND ANGLE DIHED IMPRP ELECT VDW BOUNDARY MISC KINETIC TOTAL TEMP POTENTIAL TOTALAVG TEMPAVG PRESSURE GPRESSURE VOLUME PRESSAVG GPRESSAVG
ENERGY: 0 4.3634 27.9792 42.4469 0.0000 -10480.2243 1328.4093 0.0000 0.0000 1720.3858 -7356.6398 296.6378 -9077.0256 -7356.6398 296.6378 -741.3162 -644.3155 30472.9941 -741.3162 -644.3155
ENERGY: 300000 7.8389 31.5185 49.0256 0.0000 -10580.4702 1398.4833 0.0000 0.0000 1738.9452 -7354.6586 299.8379 -9093.6038 -7360.1170 298.9669 -251.6911 -161.2557 30427.7500 -320.5456 -225.8448
ENERGY: 600000 4.9374 12.8570 48.5331 0.0000 -10587.6748 1373.4803 0.0000 0.0000 1739.1635 -7408.7034 299.8756 -9147.8670 -7349.9662 300.1311 -246.2123 -105.3670 29522.4698 -274.4536 -175.4277
ENERGY: 900000 4.4663 15.6696 41.4611 0.0000 -10532.8738 1367.0729 0.0000 0.0000 1712.8260 -7391.3779 295.3343 -9104.2039 -7350.7603 300.0663 -308.1202 -303.5473 30330.0617 -347.4615 -261.9445
ENERGY: 1200000 6.7934 23.3301 42.9485 0.0000 -10553.5207 1341.3920 0.0000 0.0000 1755.7461 -7383.3106 302.7348 -9139.0567 -7352.0607 301.1823 -378.3089 -282.7874 29712.4826 -337.5508 -254.9377
ENERGY: 1500000 5.9234 28.0138 42.9911 0.0000 -10664.6288 1433.0562 0.0000 0.0000 1710.3773 -7444.2669 294.9121 -9154.6442 -7358.6877 300.1436 65.0957 160.3961 30189.0277 -260.3607 -182.5461
TCL: Running FEP window  20: Lambda1 0.9500000000000003 Lambda2 1.0    [dLambda 0.04999999999999971]
TCL: Setting parameter firsttimestep to 0
TCL: Setting parameter alchLambda to 0.9500000000000003
Info: NONBONDED TABLE R-SQUARED SPACING: 0.0625
Info: NONBONDED TABLE SIZE: 705 POINTS
TCL: Setting parameter alchLambda2 to 1.0
Info: NONBONDED TABLE R-SQUARED SPACING: 0.0625
Info: NONBONDED TABLE SIZE: 705 POINTS
TCL: Running for 1500000 steps
ETITLE: TS BOND ANGLE DIHED IMPRP ELECT VDW BOUNDARY MISC KINETIC TOTAL TEMP POTENTIAL TOTALAVG TEMPAVG PRESSURE GPRESSURE VOLUME PRESSAVG GPRESSAVG
ENERGY: 0 5.9234 28.0138 42.9911 0.0000 -10668.2094 1434.7510 0.0000 0.0000 1709.5546 -7446.9754 294.7703 -9156.5300 -7446.9754 294.7703 117.9317 204.2742 30189.0277 117.9317 204.2742
ENERGY: 300000 4.7494 20.8996 42.9647 0.0000 -10421.4590 1324.2029 0.0000 0.0000 1738.0349 -7290.6076 299.6810 -9028.6425 -7361.8786 301.0975 -308.1209 -292.7908 30087.1711 -132.1898 -86.6800
ENERGY: 600000 11.0644 22.1944 45.6343 0.0000 -10528.0304 1369.9906 0.0000 0.0000 1707.4474 -7371.6993 294.4069 -9079.1467 -7342.6779 299.1185 -504.0636 -471.0172 30410.2916 -116.2352 -63.4319
ENERGY: 900000 5.2205 22.0969 50.0296 0.0000 -10523.2492 1373.0942 0.0000 0.0000 1731.0390 -7341.7690 298.4747 -9072.8079 -7360.9112 298.9993 -53.2199 -39.0361 29852.0223 -179.4317 -129.3223
ENERGY: 1200000 3.9853 26.4529 41.6713 0.0000 -10506.7259 1427.0631 0.0000 0.0000 1721.1986 -7286.3548 296.7780 -9007.5534 -7351.6115 299.2587 306.7369 364.6010 30448.6651 -111.4302 -61.4837
ENERGY: 1500000 5.4140 18.5919 46.3616 0.0000 -10605.4720 1388.4979 0.0000 0.0000 1710.5417 -7436.0648 294.9405 -9146.6065 -7367.6122 298.5303 -7.7133 65.9880 29874.7667 -54.4070 -6.0498
TCL: Exiting due to exit command.
