Info: SIMULATION PARAMETERS:
Info: TIMESTEP               2
Info: NUMBER OF STEPS        0
Info: STEPS PER CYCLE        10
Info: PERIODIC CELL BASIS 1  29.6338 0 0
Info: PERIODIC CELL BASIS 2  0 36.2772 0
Info: PERIODIC CELL BASIS 3  0 0 28.1896
Info: PERIODIC CELL CENTER   0 0 0
Info: WRAPPING WATERS AROUND PERIODIC BOUNDARIES ON OUTPUT.
Info: WRAPPING ALL CLUSTERS AROUND PERIODIC BOUNDARIES ON OUTPUT.
Info: FIRST LDB TIMESTEP     50
Info: LAST LDB TIMESTEP     -1
Info: HOM BACKGROUND SCALING 1
Info: PME BACKGROUND SCALING 1
Info: MIN ATOMS PER PATCH    40
Info: EMPTY PATCH LOAD       40 ATOMS
Info: VELOCITY FILE          mobley_7608435_equil.vel
Info: CENTER OF MASS MOVING INITIALLY? NO
Info: DIELECTRIC             1
Info: EXCLUDE                SCALED ONE-FOUR
Info: 1-4 ELECTROSTATICS SCALED BY 0.833333
Info: MODIFIED 1-4 VDW PARAMETERS WILL BE USED
Info: DCD FILENAME           mobley_7608435_prod.dcd
Info: DCD FREQUENCY          100000
Info: DCD FIRST STEP         100000
Info: DCD FILE WILL CONTAIN UNIT CELL DATA
Info: XST FILENAME           mobley_7608435_prod.xst
Info: XST FREQUENCY          100000
Info: NO VELOCITY DCD OUTPUT
Info: NO FORCE DCD OUTPUT
Info: OUTPUT FILENAME        mobley_7608435_prod
Info: BINARY OUTPUT FILES WILL BE USED
Info: RESTART FILENAME       mobley_7608435_prod.restart
Info: RESTART FREQUENCY      100000
Info: BINARY RESTART FILES WILL BE USED
Info: CUTOFF                 9
Info: PAIRLIST DISTANCE      11
Info: PAIRLIST SHRINK RATE   0.01
Info: PAIRLIST GROW RATE     0.01
Info: PAIRLIST TRIGGER       0.3
Info: PAIRLISTS PER CYCLE    2
Info: PAIRLISTS ENABLED
Info: MARGIN                 2
Info: HYDROGEN GROUP CUTOFF  2.5
Info: PATCH DIMENSION        15.5
Info: ENERGY OUTPUT STEPS    100000
Info: ENERGY EVALUATION STEPS    100000
Info: OUTPUT ENERGY PRECISION 4
Info: CROSSTERM ENERGY INCLUDED IN DIHEDRAL
Info: TIMING OUTPUT STEPS    1000000
Info: PRESSURE OUTPUT STEPS  100000
Info: ALCHEMICAL FEP ON
Info: FEP CURRENT LAMBDA VALUE     0
Info: FEP COMPARISON LAMBDA VALUE  0.05
Info: FEP INTRA-ALCHEMICAL NON-BONDED INTERACTIONS WILL BE RETAINED
Info: FEP INTRA-ALCHEMICAL BONDED INTERACTIONS WILL BE RETAINED
Info: FEP VDW SHIFTING COEFFICIENT 5
Info: FEP ELEC. ACTIVE FOR ANNIHILATED PARTICLES BETWEEN LAMBDA = 0 AND LAMBDA = 0.5
Info: FEP ELEC. ACTIVE FOR EXNIHILATED PARTICLES BETWEEN LAMBDA = 0.5 AND LAMBDA = 1
Info: FEP VDW ACTIVE FOR ANNIHILATED PARTICLES BETWEEN LAMBDA = 0 AND LAMBDA = 1
Info: FEP VDW ACTIVE FOR EXNIHILATED PARTICLES BETWEEN LAMBDA = 0 AND LAMBDA = 1
Info: FEP BOND ACTIVE FOR ANNIHILATED PARTICLES BETWEEN LAMBDA = 1 AND LAMBDA = 1
Info: FEP BOND ACTIVE FOR EXNIHILATED PARTICLES BETWEEN LAMBDA = 0 AND LAMBDA = 0
Info: LANGEVIN DYNAMICS ACTIVE
Info: LANGEVIN TEMPERATURE   300
Info: LANGEVIN USING BBK INTEGRATOR
Info: LANGEVIN DAMPING COEFFICIENT IS 1 INVERSE PS
Info: LANGEVIN DYNAMICS APPLIED TO HYDROGENS
Info: LANGEVIN PISTON PRESSURE CONTROL ACTIVE
Info:        TARGET PRESSURE IS 1.01325 BAR
Info:     OSCILLATION PERIOD IS 50 FS
Info:             DECAY TIME IS 25 FS
Info:     PISTON TEMPERATURE IS 300 K
Info:       PRESSURE CONTROL IS GROUP-BASED
Info:    INITIAL STRAIN RATE IS 0.000646517 0.000646517 0.000646517
Info:       CELL FLUCTUATION IS ISOTROPIC
Info: PARTICLE MESH EWALD (PME) ACTIVE
Info: PME TOLERANCE               1e-06
Info: PME EWALD COEFFICIENT       0.348832
Info: PME INTERPOLATION ORDER     4
Info: PME GRID DIMENSIONS         32 40 32
Info: PME MAXIMUM GRID SPACING    1
Info: PME CALCULATION WILL BE PERFORMED ON GPU
Info: FULL ELECTROSTATIC EVALUATION FREQUENCY      2
Info: USING VERLET I (r-RESPA) MTS SCHEME.
Info: C1 SPLITTING OF LONG RANGE ELECTROSTATICS
Info: PLACING ATOMS IN PATCHES BY HYDROGEN GROUPS
Info: RIGID BONDS TO HYDROGEN : ALL
Info:         ERROR TOLERANCE : 1e-08
Info:          MAX ITERATIONS : 100
Info: RIGID WATER USING SETTLE ALGORITHM
Info: RANDOM NUMBER SEED     1744073051
Info: USE HYDROGEN BONDS?    NO
Info: Using AMBER format force field!
Info: AMBER PARM FILE        mobley_7608435.prmtop
Info: COORDINATE PDB         mobley_7608435.pdb
Info: Exclusions will be read from PARM file!
Info: SCNB (VDW SCALING)     2
Info: USING ARITHMETIC MEAN TO COMBINE L-J SIGMA PARAMETERS
Info: BINARY COORDINATES     mobley_7608435_equil.coor
Info: SUMMARY OF PARAMETERS:
Info: 9 BONDS
Info: 11 ANGLES
Info:   11 HARMONIC
Info:   0 COSINE-BASED
Info: 16 DIHEDRAL
Info: 0 IMPROPER
Info: 0 CROSSTERM
Info: 0 VDW
Info: 36 VDW_PAIRS
Info: 0 NBTHOLE_PAIRS
Info: To read alchdata from file: mobley_7608435.pdb
Info: To read alchflag data from column: 5
Info: STRUCTURE SUMMARY:
Info: 2924 ATOMS
Info: 2923 BONDS
Info: 52 ANGLES
Info: 81 DIHEDRALS
Info: 0 IMPROPERS
Info: 0 CROSSTERMS
Info: 3040 EXCLUSIONS
Info: 2913 RIGID BONDS
Info: ALCH: 0 ATOMS TO DISAPPEAR IN FINAL STATE
Info: ALCH: 29 ATOMS TO APPEAR IN FINAL STATE
Info: 5859 DEGREES OF FREEDOM
Info: 976 HYDROGEN GROUPS
Info: 4 ATOMS IN LARGEST HYDROGEN GROUP
Info: 976 MIGRATION GROUPS
Info: 4 ATOMS IN LARGEST MIGRATION GROUP
Info: TOTAL MASS = 17543.7 amu
Info: TOTAL CHARGE = 9.99831e-05 e
Info: MASS DENSITY = 0.961325 g/cm^3
Info: ATOM DENSITY = 0.0964868 atoms/A^3
Info: ADDED 0 IMPLICIT EXCLUSIONS
Info: NONBONDED TABLE R-SQUARED SPACING: 0.0625
Info: NONBONDED TABLE SIZE: 705 POINTS
Info: REMOVING COM VELOCITY -0.0342989 -0.0591989 -0.0643925
Info: Use 3D box decompostion in PME FFT.
Info: Updated CUDA force table with 4096 elements.
Info: Updated CUDA LJ table with 8 x 8 elements.
Info: Found 32 unique exclusion lists needing 124 bytes
TCL: Running for 1500000 steps
ETITLE: TS BOND ANGLE DIHED IMPRP ELECT VDW BOUNDARY MISC KINETIC TOTAL TEMP POTENTIAL TOTALAVG TEMPAVG PRESSURE GPRESSURE VOLUME PRESSAVG GPRESSAVG
ENERGY: 0 6.1057 12.8087 7.6290 0.0000 -10563.0234 1420.4339 0.0000 0.0000 1748.1795 -7367.8666 300.2983 -9116.0461 -7367.8666 300.2983 -263.9048 -182.4893 30304.6749 -263.9048 -182.4893
ENERGY: 300000 1.1614 8.6626 8.6413 0.0000 -10372.1621 1401.5039 0.0000 0.0000 1671.3820 -7280.8109 287.1062 -8952.1929 -7379.3785 296.8773 66.8509 134.1967 30240.5855 -64.8298 -1.5235
ENERGY: 600000 4.2418 15.1020 4.5447 0.0000 -10634.3681 1528.6714 0.0000 0.0000 1738.6037 -7343.2045 298.6534 -9081.8082 -7373.1390 298.8932 813.4096 872.2907 29860.1150 84.6933 134.8325
ENERGY: 900000 3.9012 12.5969 6.6584 0.0000 -10626.2827 1500.3734 0.0000 0.0000 1728.4923 -7374.2606 296.9165 -9102.7528 -7367.3223 299.5416 516.7936 484.7096 30109.0602 179.4223 220.4288
ENERGY: 1200000 2.4319 18.1521 5.6518 0.0000 -10502.5933 1413.5105 0.0000 0.0000 1706.8690 -7355.9781 293.2021 -9062.8471 -7352.3318 298.7916 -5.7523 14.3533 29939.7368 190.3156 229.4281
ENERGY: 1500000 2.8869 16.4379 4.7588 0.0000 -10659.9688 1473.0354 0.0000 0.0000 1733.1921 -7429.6576 297.7238 -9162.8498 -7359.2665 298.3396 286.6746 343.8429 29613.9205 212.3030 256.1422
TCL: Running FEP window   2: Lambda1 0.05   Lambda2 0.1    [dLambda 0.05  ]
TCL: Setting parameter firsttimestep to 0
TCL: Setting parameter alchLambda to 0.05
Info: NONBONDED TABLE R-SQUARED SPACING: 0.0625
Info: NONBONDED TABLE SIZE: 705 POINTS
TCL: Setting parameter alchLambda2 to 0.1
Info: NONBONDED TABLE R-SQUARED SPACING: 0.0625
Info: NONBONDED TABLE SIZE: 705 POINTS
TCL: Running for 1500000 steps
ETITLE: TS BOND ANGLE DIHED IMPRP ELECT VDW BOUNDARY MISC KINETIC TOTAL TEMP POTENTIAL TOTALAVG TEMPAVG PRESSURE GPRESSURE VOLUME PRESSAVG GPRESSAVG
ENERGY: 0 2.8869 16.4379 4.7588 0.0000 -10659.9688 1477.6161 0.0000 0.0000 1732.3662 -7425.9029 297.5820 -9158.2692 -7425.9029 297.5820 280.9763 352.5693 29613.9205 280.9763 352.5693
ENERGY: 300000 2.7316 11.0225 6.3685 0.0000 -10469.4061 1405.4155 0.0000 0.0000 1704.1032 -7339.7649 292.7270 -9043.8680 -7385.3986 297.2787 75.7648 121.9686 29819.2476 23.4060 71.0488
ENERGY: 600000 2.4847 17.3557 5.9920 0.0000 -10487.9096 1391.6301 0.0000 0.0000 1733.9287 -7336.5183 297.8504 -9070.4471 -7368.8799 297.8829 -337.5525 -265.0714 30095.1851 -188.5324 -132.0988
ENERGY: 900000 3.6402 18.5908 3.6145 0.0000 -10634.0985 1482.1646 0.0000 0.0000 1727.3598 -7398.7286 296.7220 -9126.0884 -7361.0070 298.4365 151.1088 267.6762 29819.9581 -276.1526 -206.7468
ENERGY: 1200000 2.7156 12.5582 4.8030 0.0000 -10667.6798 1500.3665 0.0000 0.0000 1738.2589 -7408.9777 298.5942 -9147.2366 -7371.4677 298.6771 263.4994 354.8629 29996.8889 -216.2369 -146.6739
ENERGY: 1500000 3.4833 13.7780 6.6005 0.0000 -10527.0993 1359.8446 0.0000 0.0000 1748.1480 -7395.2449 300.2929 -9143.3930 -7366.3890 299.2339 -587.2089 -450.4331 29504.4162 -222.0648 -148.7115
TCL: Running FEP window   3: Lambda1 0.1    Lambda2 0.15000000000000002 [dLambda 0.05000000000000002]
TCL: Setting parameter firsttimestep to 0
TCL: Setting parameter alchLambda to 0.1
Info: NONBONDED TABLE R-SQUARED SPACING: 0.0625
Info: NONBONDED TABLE SIZE: 705 POINTS
TCL: Setting parameter alchLambda2 to 0.15000000000000002
Info: NONBONDED TABLE R-SQUARED SPACING: 0.0625
Info: NONBONDED TABLE SIZE: 705 POINTS
TCL: Running for 1500000 steps
ETITLE: TS BOND ANGLE DIHED IMPRP ELECT VDW BOUNDARY MISC KINETIC TOTAL TEMP POTENTIAL TOTALAVG TEMPAVG PRESSURE GPRESSURE VOLUME PRESSAVG GPRESSAVG
ENERGY: 0 3.4833 13.7780 6.6005 0.0000 -10527.0980 1362.7993 0.0000 0.0000 1747.2967 -7393.1402 300.1467 -9140.4369 -7393.1402 300.1467 -534.7570 -440.1822 29504.4162 -534.7570 -440.1822
ENERGY: 300000 0.6751 14.3871 5.0761 0.0000 -10579.4766 1373.5918 0.0000 0.0000 1752.4257 -7433.3210 301.0277 -9185.7466 -7387.6787 299.4175 -766.3227 -700.6477 30181.8942 -26.9642 37.8412
ENERGY: 600000 4.5923 20.0054 5.4831 0.0000 -10638.7174 1406.4142 0.0000 0.0000 1783.7991 -7418.4232 306.4170 -9202.2223 -7374.9778 300.2507 -645.6075 -554.5043 29848.9206 -181.7725 -106.5783
ENERGY: 900000 2.9534 13.8020 6.0824 0.0000 -10530.7496 1436.5994 0.0000 0.0000 1779.5121 -7291.8002 305.6806 -9071.3123 -7365.3755 300.7305 363.6684 398.8585 29772.9934 -98.5340 -27.2667
ENERGY: 1200000 1.1223 16.1123 6.0975 0.0000 -10572.6506 1447.2342 0.0000 0.0000 1829.2612 -7272.8231 314.2264 -9102.0843 -7357.6328 301.7191 333.6937 382.6764 29737.3434 -35.4813 32.6317
ENERGY: 1500000 2.9367 13.7398 6.5782 0.0000 -10599.6608 1437.6442 0.0000 0.0000 1727.5871 -7411.1749 296.7610 -9138.7619 -7359.6823 301.0519 195.9016 243.8628 29572.1049 -26.3526 40.1888
TCL: Running FEP window   4: Lambda1 0.15000000000000002 Lambda2 0.2    [dLambda 0.04999999999999999]
TCL: Setting parameter firsttimestep to 0
TCL: Setting parameter alchLambda to 0.15000000000000002
Info: NONBONDED TABLE R-SQUARED SPACING: 0.0625
Info: NONBONDED TABLE SIZE: 705 POINTS
TCL: Setting parameter alchLambda2 to 0.2
Info: NONBONDED TABLE R-SQUARED SPACING: 0.0625
Info: NONBONDED TABLE SIZE: 705 POINTS
TCL: Running for 1500000 steps
ETITLE: TS BOND ANGLE DIHED IMPRP ELECT VDW BOUNDARY MISC KINETIC TOTAL TEMP POTENTIAL TOTALAVG TEMPAVG PRESSURE GPRESSURE VOLUME PRESSAVG GPRESSAVG
ENERGY: 0 2.9367 13.7398 6.5782 0.0000 -10599.6625 1441.4634 0.0000 0.0000 1726.7237 -7408.2207 296.6127 -9134.9444 -7408.2207 296.6127 184.3135 259.6877 29572.1049 184.3135 259.6877
ENERGY: 300000 3.8628 17.9380 4.6940 0.0000 -10496.6450 1452.2305 0.0000 0.0000 1769.7244 -7248.1953 303.9993 -9017.9197 -7316.9517 300.7111 507.7271 524.3171 30058.4587 373.8707 420.1843
ENERGY: 600000 1.9967 17.8343 6.5078 0.0000 -10558.7729 1392.5166 0.0000 0.0000 1725.9509 -7413.9665 296.4799 -9139.9174 -7340.8563 300.1482 -342.1518 -266.8900 29688.4634 56.9345 102.9203
ENERGY: 900000 7.3483 15.6982 6.9075 0.0000 -10619.8306 1458.2571 0.0000 0.0000 1770.0003 -7361.6192 304.0466 -9131.6194 -7339.5806 301.5217 165.5707 277.4849 29371.3214 5.6372 60.2487
ENERGY: 1200000 4.1826 15.4061 7.3011 0.0000 -10482.4138 1334.7300 0.0000 0.0000 1728.2664 -7392.5274 296.8777 -9120.7938 -7345.6488 301.2852 -506.6781 -460.4410 29672.7187 -62.9942 -9.0702
ENERGY: 1500000 6.6240 15.8466 6.5947 0.0000 -10661.4565 1533.9466 0.0000 0.0000 1726.7686 -7371.6760 296.6204 -9098.4446 -7343.1482 301.4744 479.2576 542.5214 30098.3962 -62.4774 -2.8450
TCL: Running FEP window   5: Lambda1 0.2    Lambda2 0.25   [dLambda 0.04999999999999999]
TCL: Setting parameter firsttimestep to 0
TCL: Setting parameter alchLambda to 0.2
Info: NONBONDED TABLE R-SQUARED SPACING: 0.0625
Info: NONBONDED TABLE SIZE: 705 POINTS
TCL: Setting parameter alchLambda2 to 0.25
Info: NONBONDED TABLE R-SQUARED SPACING: 0.0625
Info: NONBONDED TABLE SIZE: 705 POINTS
TCL: Running for 1500000 steps
ETITLE: TS BOND ANGLE DIHED IMPRP ELECT VDW BOUNDARY MISC KINETIC TOTAL TEMP POTENTIAL TOTALAVG TEMPAVG PRESSURE GPRESSURE VOLUME PRESSAVG GPRESSAVG
ENERGY: 0 6.6240 15.8466 6.5947 0.0000 -10661.4566 1534.9754 0.0000 0.0000 1725.8635 -7371.5524 296.4649 -9097.4159 -7371.5524 296.4649 450.2014 554.3113 30098.3962 450.2014 554.3113
ENERGY: 300000 2.5057 13.8176 4.0223 0.0000 -10547.1547 1427.6968 0.0000 0.0000 1701.5402 -7397.5722 292.2867 -9099.1124 -7350.6886 300.7976 112.7864 172.4853 29622.3852 143.8068 232.1676
ENERGY: 600000 2.8078 13.0514 3.4433 0.0000 -10537.4122 1417.2617 0.0000 0.0000 1769.9590 -7330.8890 304.0396 -9100.8480 -7369.1148 301.3505 -65.2811 -41.7080 29836.2975 -133.7971 -62.8650
ENERGY: 900000 1.9250 14.5461 6.0244 0.0000 -10547.1434 1434.0502 0.0000 0.0000 1737.1761 -7353.4216 298.4082 -9090.5977 -7359.1857 301.0827 267.5854 279.4691 29913.5909 -87.7167 -25.8462
ENERGY: 1200000 2.2576 11.0153 9.2812 0.0000 -10594.2586 1410.0259 0.0000 0.0000 1752.5531 -7409.1255 301.0496 -9161.6786 -7358.1161 300.5602 -350.0924 -246.5232 29955.2498 -157.2727 -90.1010
ENERGY: 1500000 3.2458 12.9899 3.7501 0.0000 -10429.4060 1354.8544 0.0000 0.0000 1737.9123 -7316.6535 298.5347 -9054.5659 -7353.1890 300.5276 -396.5775 -354.0440 30032.2872 -216.6161 -154.2886
TCL: Running FEP window   6: Lambda1 0.25   Lambda2 0.3    [dLambda 0.04999999999999999]
TCL: Setting parameter firsttimestep to 0
TCL: Setting parameter alchLambda to 0.25
Info: NONBONDED TABLE R-SQUARED SPACING: 0.0625
Info: NONBONDED TABLE SIZE: 705 POINTS
TCL: Setting parameter alchLambda2 to 0.3
Info: NONBONDED TABLE R-SQUARED SPACING: 0.0625
Info: NONBONDED TABLE SIZE: 705 POINTS
TCL: Running for 1500000 steps
ETITLE: TS BOND ANGLE DIHED IMPRP ELECT VDW BOUNDARY MISC KINETIC TOTAL TEMP POTENTIAL TOTALAVG TEMPAVG PRESSURE GPRESSURE VOLUME PRESSAVG GPRESSAVG
ENERGY: 0 3.2458 12.9899 3.7501 0.0000 -10429.4070 1356.6831 0.0000 0.0000 1737.0992 -7315.6390 298.3950 -9052.7382 -7315.6390 298.3950 -416.6043 -336.9029 30032.2872 -416.6043 -336.9029
ENERGY: 300000 4.0240 12.3686 8.7263 0.0000 -10681.0284 1457.4548 0.0000 0.0000 1783.4884 -7414.9662 306.3636 -9198.4547 -7362.6144 302.0448 44.9319 91.3711 29597.0397 -207.8781 -127.2385
ENERGY: 600000 3.5237 13.6198 3.6681 0.0000 -10516.9335 1440.9282 0.0000 0.0000 1759.1717 -7296.0218 302.1865 -9055.1936 -7356.2627 301.2901 22.8056 187.6858 30208.4881 -233.1588 -158.5619
ENERGY: 900000 4.8604 12.6608 4.4662 0.0000 -10603.0671 1416.4618 0.0000 0.0000 1749.0797 -7415.5381 300.4530 -9164.6179 -7359.6499 300.8036 -119.3005 -98.1750 29691.3172 -232.0175 -168.8586
ENERGY: 1200000 2.3138 13.1748 7.8165 0.0000 -10567.2694 1421.3815 0.0000 0.0000 1804.7567 -7317.8261 310.0170 -9122.5828 -7348.0238 301.6451 153.9399 216.1579 29398.7167 -156.1767 -99.4826
ENERGY: 1500000 4.2253 9.9921 5.7916 0.0000 -10707.2225 1502.2183 0.0000 0.0000 1759.6691 -7425.3262 302.2720 -9184.9953 -7353.4319 301.6667 448.0988 500.7604 29704.1608 6.8625 63.1751
TCL: Running FEP window   7: Lambda1 0.3    Lambda2 0.35   [dLambda 0.04999999999999999]
TCL: Setting parameter firsttimestep to 0
TCL: Setting parameter alchLambda to 0.3
Info: NONBONDED TABLE R-SQUARED SPACING: 0.0625
Info: NONBONDED TABLE SIZE: 705 POINTS
TCL: Setting parameter alchLambda2 to 0.35
Info: NONBONDED TABLE R-SQUARED SPACING: 0.0625
Info: NONBONDED TABLE SIZE: 705 POINTS
TCL: Running for 1500000 steps
ETITLE: TS BOND ANGLE DIHED IMPRP ELECT VDW BOUNDARY MISC KINETIC TOTAL TEMP POTENTIAL TOTALAVG TEMPAVG PRESSURE GPRESSURE VOLUME PRESSAVG GPRESSAVG
ENERGY: 0 4.2252 9.9921 5.7916 0.0000 -10707.2226 1504.0923 0.0000 0.0000 1758.7995 -7424.3219 302.1226 -9183.1214 -7424.3219 302.1226 452.9069 518.4237 29704.1608 452.9069 518.4237
ENERGY: 300000 6.9400 14.2088 5.6955 0.0000 -10495.5159 1362.8656 0.0000 0.0000 1739.1395 -7366.6664 298.7455 -9105.8060 -7389.0353 296.6880 -298.8223 -240.9941 29481.5226 200.2472 225.1809
ENERGY: 600000 3.7283 9.2497 5.3991 0.0000 -10619.2828 1457.9446 0.0000 0.0000 1715.8632 -7427.0979 294.7471 -9142.9611 -7377.9305 297.4573 318.9892 367.0730 29727.7898 119.5332 161.9363
ENERGY: 900000 4.8972 10.8870 6.4760 0.0000 -10571.3021 1438.1849 0.0000 0.0000 1798.6135 -7312.2434 308.9618 -9110.8569 -7370.2623 299.4581 538.9388 604.4644 29327.5554 160.5292 201.2690
ENERGY: 1200000 4.9000 16.5766 6.6578 0.0000 -10435.7967 1388.5230 0.0000 0.0000 1744.6269 -7274.5123 299.6881 -9019.1393 -7356.0269 299.7957 -250.2761 -204.2921 30368.9999 71.7321 117.9248
ENERGY: 1500000 3.0919 10.5391 5.4306 0.0000 -10468.7544 1365.0893 0.0000 0.0000 1768.7223 -7315.8813 303.8271 -9084.6035 -7361.4021 300.2127 -365.7673 -241.4283 29837.9961 21.2860 72.3413
TCL: Running FEP window   8: Lambda1 0.35   Lambda2 0.39999999999999997 [dLambda 0.04999999999999999]
TCL: Setting parameter firsttimestep to 0
TCL: Setting parameter alchLambda to 0.35
Info: NONBONDED TABLE R-SQUARED SPACING: 0.0625
Info: NONBONDED TABLE SIZE: 705 POINTS
TCL: Setting parameter alchLambda2 to 0.39999999999999997
Info: NONBONDED TABLE R-SQUARED SPACING: 0.0625
Info: NONBONDED TABLE SIZE: 705 POINTS
TCL: Running for 1500000 steps
ETITLE: TS BOND ANGLE DIHED IMPRP ELECT VDW BOUNDARY MISC KINETIC TOTAL TEMP POTENTIAL TOTALAVG TEMPAVG PRESSURE GPRESSURE VOLUME PRESSAVG GPRESSAVG
ENERGY: 0 3.0920 10.5391 5.4306 0.0000 -10468.7547 1364.2270 0.0000 0.0000 1767.8150 -7317.6511 303.6713 -9085.4660 -7317.6511 303.6713 -324.3008 -240.7102 29837.9961 -324.3008 -240.7102
ENERGY: 300000 2.8541 13.6575 4.1657 0.0000 -10586.5225 1429.4688 0.0000 0.0000 1801.4631 -7334.9133 309.4513 -9136.3764 -7351.2318 302.3646 146.1783 216.6332 29641.8854 65.0444 130.1492
ENERGY: 600000 3.4295 13.2261 8.8705 0.0000 -10541.5410 1378.2410 0.0000 0.0000 1739.6796 -7398.0944 298.8382 -9137.7740 -7349.5085 300.8661 -432.9309 -387.3398 29825.4804 21.9503 88.4175
ENERGY: 900000 3.5935 15.6620 4.1236 0.0000 -10384.7254 1305.3205 0.0000 0.0000 1768.7777 -7287.2481 303.8366 -9056.0258 -7343.0059 300.9120 -671.1699 -639.1848 29999.8750 -87.8482 -25.4817
ENERGY: 1200000 4.2552 16.8861 5.8907 0.0000 -10484.8880 1307.3631 0.0000 0.0000 1742.6692 -7407.8237 299.3518 -9150.4929 -7347.6765 300.4601 -1050.3249 -1012.1960 30009.5207 -189.7582 -127.4333
ENERGY: 1500000 4.4555 15.5206 5.3475 0.0000 -10605.5943 1450.8391 0.0000 0.0000 1751.8876 -7377.5440 300.9353 -9129.4316 -7350.4040 300.5502 292.7835 330.3002 29732.4244 -189.1812 -125.2985
TCL: Running FEP window   9: Lambda1 0.39999999999999997 Lambda2 0.44999999999999996 [dLambda 0.04999999999999999]
TCL: Setting parameter firsttimestep to 0
TCL: Setting parameter alchLambda to 0.39999999999999997
Info: NONBONDED TABLE R-SQUARED SPACING: 0.0625
Info: NONBONDED TABLE SIZE: 705 POINTS
TCL: Setting parameter alchLambda2 to 0.44999999999999996
Info: NONBONDED TABLE R-SQUARED SPACING: 0.0625
Info: NONBONDED TABLE SIZE: 705 POINTS
TCL: Running for 1500000 steps
ETITLE: TS BOND ANGLE DIHED IMPRP ELECT VDW BOUNDARY MISC KINETIC TOTAL TEMP POTENTIAL TOTALAVG TEMPAVG PRESSURE GPRESSURE VOLUME PRESSAVG GPRESSAVG
ENERGY: 0 4.4555 15.5206 5.3475 0.0000 -10605.5949 1451.3542 0.0000 0.0000 1750.9817 -7377.9354 300.7797 -9128.9171 -7377.9354 300.7797 273.7494 347.3547 29732.4244 273.7494 347.3547
ENERGY: 300000 2.8735 12.3878 8.1065 0.0000 -10561.7693 1423.4547 0.0000 0.0000 1752.7638 -7362.1830 301.0858 -9114.9468 -7376.1452 297.6620 18.2679 34.1439 29999.3326 -105.2363 -32.5232
ENERGY: 600000 4.0200 15.5143 7.6635 0.0000 -10589.5399 1399.4455 0.0000 0.0000 1742.5904 -7420.3061 299.3382 -9162.8965 -7371.0093 299.1692 120.6812 177.5864 29359.3238 -38.0822 23.3413
ENERGY: 900000 1.4281 12.6945 7.3888 0.0000 -10452.3984 1339.6416 0.0000 0.0000 1764.1048 -7327.1405 303.0339 -9091.2454 -7359.7562 299.3928 -866.8329 -732.9021 30323.8643 -87.1756 -13.2808
ENERGY: 1200000 3.1617 19.6516 4.6780 0.0000 -10582.6206 1388.9153 0.0000 0.0000 1760.2677 -7405.9462 302.3748 -9166.2139 -7367.7318 299.0600 -521.7918 -393.3162 30046.6285 -85.1388 -13.4149
ENERGY: 1500000 5.7602 9.6625 5.9352 0.0000 -10623.5117 1441.0864 0.0000 0.0000 1736.4174 -7424.6499 298.2779 -9161.0674 -7371.2010 298.9269 214.9162 245.1612 29853.9679 -49.9780 23.2395
TCL: Running FEP window  10: Lambda1 0.44999999999999996 Lambda2 0.49999999999999994 [dLambda 0.04999999999999999]
TCL: Setting parameter firsttimestep to 0
TCL: Setting parameter alchLambda to 0.44999999999999996
Info: NONBONDED TABLE R-SQUARED SPACING: 0.0625
Info: NONBONDED TABLE SIZE: 705 POINTS
TCL: Setting parameter alchLambda2 to 0.49999999999999994
Info: NONBONDED TABLE R-SQUARED SPACING: 0.0625
Info: NONBONDED TABLE SIZE: 705 POINTS
TCL: Running for 1500000 steps
ETITLE: TS BOND ANGLE DIHED IMPRP ELECT VDW BOUNDARY MISC KINETIC TOTAL TEMP POTENTIAL TOTALAVG TEMPAVG PRESSURE GPRESSURE VOLUME PRESSAVG GPRESSAVG
ENERGY: 0 5.7602 9.6625 5.9352 0.0000 -10623.5110 1442.6559 0.0000 0.0000 1735.5758 -7423.9214 298.1333 -9159.4972 -7423.9214 298.1333 194.8890 268.2675 29853.9679 194.8890 268.2675
ENERGY: 300000 5.3976 11.6638 5.5238 0.0000 -10474.4078 1392.6595 0.0000 0.0000 1772.2194 -7286.9437 304.4278 -9059.1631 -7376.2041 302.4005 -239.8437 -137.9636 30418.5385 -379.3456 -304.7611
ENERGY: 600000 1.5053 14.6132 7.4477 0.0000 -10554.7863 1425.8356 0.0000 0.0000 1718.0140 -7387.3705 295.1166 -9105.3844 -7370.8842 300.0897 -168.1956 -112.7852 30316.3948 -239.3923 -168.1772
ENERGY: 900000 0.6509 10.9511 6.0183 0.0000 -10548.7607 1395.8765 0.0000 0.0000 1761.1896 -7374.0742 302.5332 -9135.2638 -7367.6601 301.2874 1.9912 63.7171 29758.2514 -161.0886 -100.6151
ENERGY: 1200000 1.0112 13.8456 5.2285 0.0000 -10557.6611 1376.6564 0.0000 0.0000 1774.1896 -7386.7298 304.7663 -9160.9194 -7371.6521 301.4187 -644.4694 -552.3369 30218.4521 -109.6096 -48.7445
ENERGY: 1500000 5.9234 15.4367 4.7731 0.0000 -10457.2068 1373.6557 0.0000 0.0000 1747.7762 -7309.6418 300.2290 -9057.4179 -7358.3294 302.3167 -569.7669 -507.1268 30633.4932 -131.3309 -73.5451
TCL: Running FEP window  11: Lambda1 0.49999999999999994 Lambda2 0.5499999999999999 [dLambda 0.04999999999999999]
TCL: Setting parameter firsttimestep to 0
TCL: Setting parameter alchLambda to 0.49999999999999994
Info: NONBONDED TABLE R-SQUARED SPACING: 0.0625
Info: NONBONDED TABLE SIZE: 705 POINTS
TCL: Setting parameter alchLambda2 to 0.5499999999999999
Info: NONBONDED TABLE R-SQUARED SPACING: 0.0625
Info: NONBONDED TABLE SIZE: 705 POINTS
TCL: Running for 1500000 steps
ETITLE: TS BOND ANGLE DIHED IMPRP ELECT VDW BOUNDARY MISC KINETIC TOTAL TEMP POTENTIAL TOTALAVG TEMPAVG PRESSURE GPRESSURE VOLUME PRESSAVG GPRESSAVG
ENERGY: 0 5.9234 15.4367 4.7731 0.0000 -10457.2063 1374.5455 0.0000 0.0000 1746.8978 -7309.6299 300.0782 -9056.5277 -7309.6299 300.0782 -574.4017 -491.3022 30633.4932 -574.4017 -491.3022
ENERGY: 300000 3.9537 20.5630 4.6563 0.0000 -10801.6389 1493.5647 0.0000 0.0000 1704.4151 -7574.4861 292.7806 -9278.9012 -7393.4565 298.6564 191.7777 226.8679 29545.6696 -213.7748 -161.4081
ENERGY: 600000 2.3102 11.7862 4.2964 0.0000 -10608.6983 1460.8770 0.0000 0.0000 1754.9427 -7374.4858 301.4601 -9129.4284 -7370.8541 300.1386 233.5349 310.4310 29896.4550 -35.1010 15.9783
ENERGY: 900000 4.2763 13.6559 5.7825 0.0000 -10457.8757 1343.9243 0.0000 0.0000 1706.2605 -7383.9761 293.0976 -9090.2367 -7365.1161 298.3367 -285.8103 -255.3439 29893.4584 -189.0064 -133.0685
ENERGY: 1200000 5.4533 12.9490 4.9424 0.0000 -10590.8932 1397.3025 0.0000 0.0000 1734.3815 -7435.8645 297.9281 -9170.2460 -7360.4934 298.7524 -231.3942 -220.2893 30033.1280 -128.0174 -82.6506
ENERGY: 1500000 2.8485 15.9993 6.9644 0.0000 -10634.7819 1476.4167 0.0000 0.0000 1771.4971 -7361.0559 304.3038 -9132.5530 -7358.7856 299.4869 558.7778 549.1231 29843.7927 -114.0036 -71.3272
TCL: Running FEP window  12: Lambda1 0.5499999999999999 Lambda2 0.6    [dLambda 0.050000000000000044]
TCL: Setting parameter firsttimestep to 0
TCL: Setting parameter alchLambda to 0.5499999999999999
Info: NONBONDED TABLE R-SQUARED SPACING: 0.0625
Info: NONBONDED TABLE SIZE: 705 POINTS
TCL: Setting parameter alchLambda2 to 0.6
Info: NONBONDED TABLE R-SQUARED SPACING: 0.0625
Info: NONBONDED TABLE SIZE: 705 POINTS
TCL: Running for 1500000 steps
ETITLE: TS BOND ANGLE DIHED IMPRP ELECT VDW BOUNDARY MISC KINETIC TOTAL TEMP POTENTIAL TOTALAVG TEMPAVG PRESSURE GPRESSURE VOLUME PRESSAVG GPRESSAVG
ENERGY: 0 2.8485 15.9993 6.9644 0.0000 -10634.6345 1476.2978 0.0000 0.0000 1770.6068 -7361.9177 304.1508 -9132.5245 -7361.9177 304.1508 487.8583 562.1329 29843.7927 487.8583 562.1329
ENERGY: 300000 3.2179 12.0925 4.6398 0.0000 -10427.7317 1366.3339 0.0000 0.0000 1779.6301 -7261.8175 305.7008 -9041.4476 -7318.8137 301.1572 11.6252 18.7189 30068.8915 41.8771 87.6985
ENERGY: 600000 4.5900 10.1781 6.4037 0.0000 -10604.9540 1467.3103 0.0000 0.0000 1775.1845 -7341.2874 304.9372 -9116.4719 -7325.1585 302.3217 222.8977 259.6253 30186.2167 82.5456 121.3235
ENERGY: 900000 1.6758 13.3783 7.6292 0.0000 -10487.6301 1381.1690 0.0000 0.0000 1712.1927 -7371.5852 294.1166 -9083.7779 -7343.5701 300.6808 -364.6183 -312.3462 30294.7164 41.7015 84.9460
ENERGY: 1200000 1.7806 15.6637 4.0407 0.0000 -10574.3491 1469.6491 0.0000 0.0000 1764.5275 -7318.6874 303.1066 -9083.2149 -7335.7728 300.6204 651.6560 671.2523 29922.3441 25.6688 64.8358
ENERGY: 1500000 3.9118 10.4518 5.6011 0.0000 -10311.6445 1292.4901 0.0000 0.0000 1801.1891 -7198.0007 309.4042 -8999.1898 -7324.8729 301.1046 -710.5487 -608.5653 30273.2091 -81.8174 -29.3491
TCL: Running FEP window  13: Lambda1 0.6    Lambda2 0.65   [dLambda 0.050000000000000044]
TCL: Setting parameter firsttimestep to 0
TCL: Setting parameter alchLambda to 0.6
Info: NONBONDED TABLE R-SQUARED SPACING: 0.0625
Info: NONBONDED TABLE SIZE: 705 POINTS
TCL: Setting parameter alchLambda2 to 0.65
Info: NONBONDED TABLE R-SQUARED SPACING: 0.0625
Info: NONBONDED TABLE SIZE: 705 POINTS
TCL: Running for 1500000 steps
ETITLE: TS BOND ANGLE DIHED IMPRP ELECT VDW BOUNDARY MISC KINETIC TOTAL TEMP POTENTIAL TOTALAVG TEMPAVG PRESSURE GPRESSURE VOLUME PRESSAVG GPRESSAVG
ENERGY: 0 3.9118 10.4518 5.6011 0.0000 -10310.9684 1293.3343 0.0000 0.0000 1800.3434 -7197.3260 309.2589 -8997.6694 -7197.3260 309.2589 -668.7128 -582.8031 30273.2091 -668.7128 -582.8031
ENERGY: 300000 2.9480 11.7258 4.9469 0.0000 -10529.2928 1384.0968 0.0000 0.0000 1736.6450 -7388.9303 298.3169 -9125.5752 -7301.1399 306.7878 -559.0148 -504.0604 30585.1371 -304.5071 -240.8737
ENERGY: 600000 0.9441 13.5085 6.2552 0.0000 -10378.7315 1347.7026 0.0000 0.0000 1685.6904 -7324.6306 289.5641 -9010.3210 -7305.5460 301.9648 -530.5965 -408.7193 30499.0576 -196.3409 -137.4866
ENERGY: 900000 1.7326 10.5700 7.4925 0.0000 -10589.8173 1423.1323 0.0000 0.0000 1781.9358 -7364.9541 306.0969 -9146.8899 -7327.1560 301.3747 19.1080 56.8119 30085.0251 -152.0342 -94.0087
ENERGY: 1200000 3.2586 14.6958 4.0944 0.0000 -10487.8124 1395.0449 0.0000 0.0000 1785.1508 -7285.5678 306.6492 -9070.7185 -7332.4629 301.4861 -73.7929 -40.8543 30505.3531 -97.1863 -45.3343
ENERGY: 1500000 3.2481 10.9688 7.5154 0.0000 -10585.6394 1386.0683 0.0000 0.0000 1740.2293 -7437.6095 298.9327 -9177.8389 -7341.7259 301.4829 -524.1481 -426.1871 30226.9656 -128.1350 -74.2038
TCL: Running FEP window  14: Lambda1 0.65   Lambda2 0.7000000000000001 [dLambda 0.050000000000000044]
TCL: Setting parameter firsttimestep to 0
TCL: Setting parameter alchLambda to 0.65
Info: NONBONDED TABLE R-SQUARED SPACING: 0.0625
Info: NONBONDED TABLE SIZE: 705 POINTS
TCL: Setting parameter alchLambda2 to 0.7000000000000001
Info: NONBONDED TABLE R-SQUARED SPACING: 0.0625
Info: NONBONDED TABLE SIZE: 705 POINTS
TCL: Running for 1500000 steps
ETITLE: TS BOND ANGLE DIHED IMPRP ELECT VDW BOUNDARY MISC KINETIC TOTAL TEMP POTENTIAL TOTALAVG TEMPAVG PRESSURE GPRESSURE VOLUME PRESSAVG GPRESSAVG
ENERGY: 0 3.2481 10.9688 7.5154 0.0000 -10585.6193 1385.4966 0.0000 0.0000 1739.3589 -7439.0315 298.7831 -9178.3905 -7439.0315 298.7831 -497.9434 -416.5888 30226.9656 -497.9434 -416.5888
ENERGY: 300000 5.9170 10.5816 5.5783 0.0000 -10574.6081 1394.6810 0.0000 0.0000 1726.4596 -7431.3906 296.5673 -9157.8502 -7418.0067 301.1131 -437.4352 -388.3553 29893.6825 -83.8170 -27.5602
ENERGY: 600000 5.0622 15.6948 10.0743 0.0000 -10620.0168 1479.0562 0.0000 0.0000 1758.0882 -7352.0411 302.0004 -9110.1293 -7386.8885 300.4642 397.6865 538.4210 29859.7677 116.4986 187.4435
ENERGY: 900000 5.9841 9.7757 6.7193 0.0000 -10557.3711 1383.8141 0.0000 0.0000 1703.8935 -7447.1844 292.6910 -9151.0779 -7377.1436 300.5972 -700.7656 -599.3421 30332.3205 49.0544 125.5885
ENERGY: 1200000 2.3298 20.4754 6.5143 0.0000 -10531.3874 1392.7869 0.0000 0.0000 1746.5613 -7362.7197 300.0204 -9109.2810 -7373.7186 300.9373 -169.2921 -106.6649 29984.9287 91.4949 169.6021
ENERGY: 1500000 2.2003 14.7709 4.9385 0.0000 -10492.8302 1353.3304 0.0000 0.0000 1753.5728 -7364.0174 301.2248 -9117.5902 -7362.0023 301.8819 -249.3999 -203.8579 29884.9845 55.2663 130.5304
TCL: Running FEP window  15: Lambda1 0.7000000000000001 Lambda2 0.7500000000000001 [dLambda 0.050000000000000044]
TCL: Setting parameter firsttimestep to 0
TCL: Setting parameter alchLambda to 0.7000000000000001
Info: NONBONDED TABLE R-SQUARED SPACING: 0.0625
Info: NONBONDED TABLE SIZE: 705 POINTS
TCL: Setting parameter alchLambda2 to 0.7500000000000001
Info: NONBONDED TABLE R-SQUARED SPACING: 0.0625
Info: NONBONDED TABLE SIZE: 705 POINTS
TCL: Running for 1500000 steps
ETITLE: TS BOND ANGLE DIHED IMPRP ELECT VDW BOUNDARY MISC KINETIC TOTAL TEMP POTENTIAL TOTALAVG TEMPAVG PRESSURE GPRESSURE VOLUME PRESSAVG GPRESSAVG
ENERGY: 0 2.2003 14.7709 4.9385 0.0000 -10493.5600 1353.1854 0.0000 0.0000 1752.7249 -7365.7401 301.0791 -9118.4650 -7365.7401 301.0791 -258.5277 -195.8248 29884.9845 -258.5277 -195.8248
ENERGY: 300000 1.7400 10.6427 5.0678 0.0000 -10464.2140 1366.7349 0.0000 0.0000 1754.4478 -7325.5808 301.3751 -9080.0285 -7341.4081 303.0970 -273.8887 -217.0111 29912.8225 112.8597 179.9280
ENERGY: 600000 2.3876 12.3948 5.8987 0.0000 -10650.0959 1467.8979 0.0000 0.0000 1735.8585 -7425.6583 298.1819 -9161.5168 -7352.9801 301.6254 577.6441 603.3915 29711.3849 261.6206 314.5513
ENERGY: 900000 3.1845 10.5599 7.1759 0.0000 -10628.3721 1480.6591 0.0000 0.0000 1806.0226 -7320.7701 310.2345 -9126.7928 -7349.5364 302.1061 605.7455 720.7801 29743.3467 180.5914 246.8702
ENERGY: 1200000 3.8543 15.5517 5.8533 0.0000 -10356.5320 1304.7443 0.0000 0.0000 1716.9075 -7309.6211 294.9265 -9026.5285 -7346.6918 301.6288 -902.3694 -801.4452 30506.9212 147.5994 218.7746
ENERGY: 1500000 2.9890 17.0786 7.1302 0.0000 -10611.0971 1419.7657 0.0000 0.0000 1761.4629 -7402.6707 302.5801 -9164.1335 -7351.6726 301.5796 81.4163 135.3973 29723.3402 104.0375 175.9836
TCL: Running FEP window  16: Lambda1 0.7500000000000001 Lambda2 0.8000000000000002 [dLambda 0.050000000000000044]
TCL: Setting parameter firsttimestep to 0
TCL: Setting parameter alchLambda to 0.7500000000000001
Info: NONBONDED TABLE R-SQUARED SPACING: 0.0625
Info: NONBONDED TABLE SIZE: 705 POINTS
TCL: Setting parameter alchLambda2 to 0.8000000000000002
Info: NONBONDED TABLE R-SQUARED SPACING: 0.0625
Info: NONBONDED TABLE SIZE: 705 POINTS
TCL: Running for 1500000 steps
ETITLE: TS BOND ANGLE DIHED IMPRP ELECT VDW BOUNDARY MISC KINETIC TOTAL TEMP POTENTIAL TOTALAVG TEMPAVG PRESSURE GPRESSURE VOLUME PRESSAVG GPRESSAVG
ENERGY: 0 2.9890 17.0786 7.1302 0.0000 -10611.6819 1421.7574 0.0000 0.0000 1760.5673 -7402.1594 302.4263 -9162.7267 -7402.1594 302.4263 86.2371 170.9259 29723.3402 86.2371 170.9259
ENERGY: 300000 3.1778 11.9042 5.3983 0.0000 -10533.4000 1361.8339 0.0000 0.0000 1736.4375 -7414.6483 298.2813 -9151.0857 -7394.6923 304.4185 -446.4507 -432.0520 30266.9309 -190.9994 -142.4462
ENERGY: 600000 4.6175 15.7204 5.6288 0.0000 -10603.9681 1418.2058 0.0000 0.0000 1763.2156 -7396.5801 302.8812 -9159.7957 -7407.1375 302.5488 -587.7889 -480.2746 30493.2380 -228.2755 -177.3294
ENERGY: 900000 2.6027 21.0734 9.1557 0.0000 -10619.2079 1412.7522 0.0000 0.0000 1852.8189 -7320.8051 318.2730 -9173.6240 -7410.8589 301.6552 227.4080 266.7362 29804.9220 -75.2739 -23.0038
ENERGY: 1200000 3.1429 16.8148 4.9255 0.0000 -10505.0957 1355.9001 0.0000 0.0000 1741.4411 -7382.8714 299.1408 -9124.3125 -7403.6282 301.7113 -603.3148 -542.3350 30059.1093 -63.0855 -10.7432
ENERGY: 1500000 2.1906 13.1383 6.3211 0.0000 -10598.7343 1423.6592 0.0000 0.0000 1702.7175 -7450.7076 292.4890 -9153.4250 -7408.1202 300.7053 90.2978 179.7058 29623.2606 -84.0600 -24.1983
TCL: Running FEP window  17: Lambda1 0.8000000000000002 Lambda2 0.8500000000000002 [dLambda 0.050000000000000044]
TCL: Setting parameter firsttimestep to 0
TCL: Setting parameter alchLambda to 0.8000000000000002
Info: NONBONDED TABLE R-SQUARED SPACING: 0.0625
Info: NONBONDED TABLE SIZE: 705 POINTS
TCL: Setting parameter alchLambda2 to 0.8500000000000002
Info: NONBONDED TABLE R-SQUARED SPACING: 0.0625
Info: NONBONDED TABLE SIZE: 705 POINTS
TCL: Running for 1500000 steps
ETITLE: TS BOND ANGLE DIHED IMPRP ELECT VDW BOUNDARY MISC KINETIC TOTAL TEMP POTENTIAL TOTALAVG TEMPAVG PRESSURE GPRESSURE VOLUME PRESSAVG GPRESSAVG
ENERGY: 0 2.1906 13.1384 6.3211 0.0000 -10599.3443 1423.7802 0.0000 0.0000 1701.8423 -7452.0717 292.3386 -9153.9140 -7452.0717 292.3386 109.9640 195.7427 29623.2606 109.9640 195.7427
ENERGY: 300000 4.6446 14.2323 3.7412 0.0000 -10463.6751 1302.4938 0.0000 0.0000 1751.3548 -7387.2084 300.8438 -9138.5632 -7397.1911 296.2888 -826.4706 -812.1243 30137.7059 -197.2436 -152.8326
ENERGY: 600000 1.8090 17.7454 5.5634 0.0000 -10546.5163 1382.4927 0.0000 0.0000 1704.2337 -7434.6720 292.7494 -9138.9057 -7382.7432 296.7490 -325.8857 -234.1599 29930.4294 -119.1327 -73.3729
ENERGY: 900000 3.7419 8.9153 5.0263 0.0000 -10519.8643 1408.7492 0.0000 0.0000 1723.0886 -7370.3431 295.9883 -9093.4317 -7369.7045 296.8392 -185.6615 -111.2909 30190.8310 -126.0011 -80.2444
ENERGY: 1200000 2.5778 19.3004 7.0140 0.0000 -10606.6652 1481.8655 0.0000 0.0000 1747.7608 -7348.1467 300.2264 -9095.9075 -7370.8149 297.3824 617.4941 647.6449 29963.8017 -25.1185 25.1660
ENERGY: 1500000 2.5130 10.2507 4.7003 0.0000 -10607.7196 1398.2956 0.0000 0.0000 1730.2736 -7461.6862 297.2225 -9191.9598 -7370.2223 298.5847 -320.0543 -267.1358 30049.5442 -101.8269 -47.4376
TCL: Running FEP window  18: Lambda1 0.8500000000000002 Lambda2 0.9000000000000002 [dLambda 0.050000000000000044]
TCL: Setting parameter firsttimestep to 0
TCL: Setting parameter alchLambda to 0.8500000000000002
Info: NONBONDED TABLE R-SQUARED SPACING: 0.0625
Info: NONBONDED TABLE SIZE: 705 POINTS
TCL: Setting parameter alchLambda2 to 0.9000000000000002
Info: NONBONDED TABLE R-SQUARED SPACING: 0.0625
Info: NONBONDED TABLE SIZE: 705 POINTS
TCL: Running for 1500000 steps
ETITLE: TS BOND ANGLE DIHED IMPRP ELECT VDW BOUNDARY MISC KINETIC TOTAL TEMP POTENTIAL TOTALAVG TEMPAVG PRESSURE GPRESSURE VOLUME PRESSAVG GPRESSAVG
ENERGY: 0 2.5130 10.2507 4.7003 0.0000 -10609.0174 1398.4577 0.0000 0.0000 1729.3967 -7463.6989 297.0719 -9193.0956 -7463.6989 297.0719 -344.9618 -251.8644 30049.5442 -344.9618 -251.8644
ENERGY: 300000 0.9057 12.5940 5.9806 0.0000 -10597.9909 1456.4305 0.0000 0.0000 1759.8226 -7362.2573 302.2984 -9122.0799 -7415.0937 299.8753 383.6245 449.3299 30149.6609 -99.9693 -18.0496
ENERGY: 600000 6.5105 14.0549 5.1107 0.0000 -10489.9113 1352.0844 0.0000 0.0000 1664.5185 -7447.6322 285.9272 -9112.1508 -7394.1914 298.1864 -567.2113 -495.5775 30102.9067 -159.5365 -82.2161
ENERGY: 900000 1.0117 13.1469 5.4652 0.0000 -10572.0597 1434.4055 0.0000 0.0000 1771.9762 -7346.0541 304.3861 -9118.0303 -7369.6284 299.4145 290.4641 289.9168 30090.7416 -82.8861 -13.2502
ENERGY: 1200000 3.3722 9.7928 6.4052 0.0000 -10689.8787 1506.5595 0.0000 0.0000 1803.9294 -7359.8195 309.8749 -9163.7488 -7373.6580 299.8325 972.5574 1016.0385 29766.7163 62.3347 116.3496
ENERGY: 1500000 2.2362 10.6748 4.7380 0.0000 -10477.0700 1416.1465 0.0000 0.0000 1807.9719 -7235.3025 310.5693 -9043.2744 -7370.3783 300.0268 300.9544 365.0838 30260.7621 44.3197 103.4025
TCL: Running FEP window  19: Lambda1 0.9000000000000002 Lambda2 0.9500000000000003 [dLambda 0.050000000000000044]
TCL: Setting parameter firsttimestep to 0
TCL: Setting parameter alchLambda to 0.9000000000000002
Info: NONBONDED TABLE R-SQUARED SPACING: 0.0625
Info: NONBONDED TABLE SIZE: 705 POINTS
TCL: Setting parameter alchLambda2 to 0.9500000000000003
Info: NONBONDED TABLE R-SQUARED SPACING: 0.0625
Info: NONBONDED TABLE SIZE: 705 POINTS
TCL: Running for 1500000 steps
ETITLE: TS BOND ANGLE DIHED IMPRP ELECT VDW BOUNDARY MISC KINETIC TOTAL TEMP POTENTIAL TOTALAVG TEMPAVG PRESSURE GPRESSURE VOLUME PRESSAVG GPRESSAVG
ENERGY: 0 2.2362 10.6748 4.7380 0.0000 -10478.1689 1416.3856 0.0000 0.0000 1807.1357 -7236.9985 310.4257 -9044.1342 -7236.9985 310.4257 319.5338 384.4664 30260.7621 319.5338 384.4664
ENERGY: 300000 2.3482 11.8823 4.4662 0.0000 -10391.0745 1299.8049 0.0000 0.0000 1745.6366 -7326.9362 299.8615 -9072.5729 -7327.1830 302.3749 -698.4569 -614.7300 30082.8748 -124.8552 -49.6536
ENERGY: 600000 3.7613 13.3204 7.2105 0.0000 -10458.1099 1330.3805 0.0000 0.0000 1774.3275 -7329.1098 304.7900 -9103.4372 -7338.5530 301.4414 -814.8156 -739.4973 30366.7271 -136.8787 -48.4055
ENERGY: 900000 3.1885 9.3564 5.2551 0.0000 -10470.9160 1387.2596 0.0000 0.0000 1719.8839 -7345.9725 295.4378 -9065.8564 -7328.1583 300.7525 170.7017 260.7668 29719.7955 -81.5504 -2.0456
ENERGY: 1200000 4.0253 13.4025 5.4504 0.0000 -10518.2039 1404.0893 0.0000 0.0000 1809.2798 -7281.9566 310.7940 -9091.2364 -7333.9114 302.1715 93.1831 137.6936 30158.2286 -73.5936 4.2320
ENERGY: 1500000 2.4690 14.1834 5.6912 0.0000 -10510.5251 1346.5463 0.0000 0.0000 1780.3323 -7361.3029 305.8215 -9141.6352 -7330.9388 302.4254 -456.5676 -338.7271 29781.8396 -127.2423 -52.8126
TCL: Running FEP window  20: Lambda1 0.9500000000000003 Lambda2 1.0    [dLambda 0.04999999999999971]
TCL: Setting parameter firsttimestep to 0
TCL: Setting parameter alchLambda to 0.9500000000000003
Info: NONBONDED TABLE R-SQUARED SPACING: 0.0625
Info: NONBONDED TABLE SIZE: 705 POINTS
TCL: Setting parameter alchLambda2 to 1.0
Info: NONBONDED TABLE R-SQUARED SPACING: 0.0625
Info: NONBONDED TABLE SIZE: 705 POINTS
TCL: Running for 1500000 steps
ETITLE: TS BOND ANGLE DIHED IMPRP ELECT VDW BOUNDARY MISC KINETIC TOTAL TEMP POTENTIAL TOTALAVG TEMPAVG PRESSURE GPRESSURE VOLUME PRESSAVG GPRESSAVG
ENERGY: 0 2.4690 14.1834 5.6912 0.0000 -10512.2995 1346.7239 0.0000 0.0000 1779.4598 -7363.7722 305.6716 -9143.2320 -7363.7722 305.6716 -412.1346 -327.0375 29781.8396 -412.1346 -327.0375
ENERGY: 300000 5.4680 12.0405 4.7789 0.0000 -10680.8956 1540.6159 0.0000 0.0000 1745.9298 -7372.0625 299.9119 -9117.9923 -7384.2927 299.7711 1283.7448 1338.5185 29685.7425 260.0203 342.3289
ENERGY: 600000 2.2279 8.5256 4.5426 0.0000 -10618.4429 1427.5810 0.0000 0.0000 1767.8436 -7407.7221 303.6762 -9175.5658 -7385.5240 299.9904 11.5244 84.7779 30168.7148 110.3699 180.9297
ENERGY: 900000 5.9450 14.2953 4.8357 0.0000 -10563.8348 1444.1822 0.0000 0.0000 1790.6927 -7303.8839 307.6011 -9094.5766 -7362.2605 300.4946 74.0390 151.4610 30604.2295 34.4060 98.8263
ENERGY: 1200000 1.6424 13.7159 3.9016 0.0000 -10541.1191 1391.5696 0.0000 0.0000 1796.3163 -7333.9733 308.5672 -9130.2896 -7363.8328 300.5047 -190.6667 -96.4437 30106.6934 35.7861 97.7577
ENERGY: 1500000 2.7311 10.5782 4.3944 0.0000 -10466.8572 1356.3769 0.0000 0.0000 1681.7755 -7411.0010 288.8916 -9092.7765 -7364.1118 300.3472 -531.9162 -514.2047 30415.8660 -57.3888 6.8262
TCL: Exiting due to exit command.
