Info: SIMULATION PARAMETERS:
Info: TIMESTEP               2
Info: NUMBER OF STEPS        0
Info: STEPS PER CYCLE        10
Info: PERIODIC CELL BASIS 1  30.7 0 0
Info: PERIODIC CELL BASIS 2  0 31.3958 0
Info: PERIODIC CELL BASIS 3  0 0 31.3467
Info: PERIODIC CELL CENTER   0 0 0
Info: WRAPPING WATERS AROUND PERIODIC BOUNDARIES ON OUTPUT.
Info: WRAPPING ALL CLUSTERS AROUND PERIODIC BOUNDARIES ON OUTPUT.
Info: FIRST LDB TIMESTEP     50
Info: LAST LDB TIMESTEP     -1
Info: HOM BACKGROUND SCALING 1
Info: PME BACKGROUND SCALING 1
Info: MIN ATOMS PER PATCH    40
Info: EMPTY PATCH LOAD       40 ATOMS
Info: VELOCITY FILE          mobley_4690963_equil.vel
Info: CENTER OF MASS MOVING INITIALLY? NO
Info: DIELECTRIC             1
Info: EXCLUDE                SCALED ONE-FOUR
Info: 1-4 ELECTROSTATICS SCALED BY 0.833333
Info: MODIFIED 1-4 VDW PARAMETERS WILL BE USED
Info: DCD FILENAME           mobley_4690963_prod.dcd
Info: DCD FREQUENCY          100000
Info: DCD FIRST STEP         100000
Info: DCD FILE WILL CONTAIN UNIT CELL DATA
Info: XST FILENAME           mobley_4690963_prod.xst
Info: XST FREQUENCY          100000
Info: NO VELOCITY DCD OUTPUT
Info: NO FORCE DCD OUTPUT
Info: OUTPUT FILENAME        mobley_4690963_prod
Info: BINARY OUTPUT FILES WILL BE USED
Info: RESTART FILENAME       mobley_4690963_prod.restart
Info: RESTART FREQUENCY      100000
Info: BINARY RESTART FILES WILL BE USED
Info: CUTOFF                 9
Info: PAIRLIST DISTANCE      11
Info: PAIRLIST SHRINK RATE   0.01
Info: PAIRLIST GROW RATE     0.01
Info: PAIRLIST TRIGGER       0.3
Info: PAIRLISTS PER CYCLE    2
Info: PAIRLISTS ENABLED
Info: MARGIN                 2
Info: HYDROGEN GROUP CUTOFF  2.5
Info: PATCH DIMENSION        15.5
Info: ENERGY OUTPUT STEPS    100000
Info: ENERGY EVALUATION STEPS    100000
Info: OUTPUT ENERGY PRECISION 4
Info: CROSSTERM ENERGY INCLUDED IN DIHEDRAL
Info: TIMING OUTPUT STEPS    1000000
Info: PRESSURE OUTPUT STEPS  100000
Info: ALCHEMICAL FEP ON
Info: FEP CURRENT LAMBDA VALUE     0
Info: FEP COMPARISON LAMBDA VALUE  0.05
Info: FEP INTRA-ALCHEMICAL NON-BONDED INTERACTIONS WILL BE RETAINED
Info: FEP INTRA-ALCHEMICAL BONDED INTERACTIONS WILL BE RETAINED
Info: FEP VDW SHIFTING COEFFICIENT 5
Info: FEP ELEC. ACTIVE FOR ANNIHILATED PARTICLES BETWEEN LAMBDA = 0 AND LAMBDA = 0.5
Info: FEP ELEC. ACTIVE FOR EXNIHILATED PARTICLES BETWEEN LAMBDA = 0.5 AND LAMBDA = 1
Info: FEP VDW ACTIVE FOR ANNIHILATED PARTICLES BETWEEN LAMBDA = 0 AND LAMBDA = 1
Info: FEP VDW ACTIVE FOR EXNIHILATED PARTICLES BETWEEN LAMBDA = 0 AND LAMBDA = 1
Info: FEP BOND ACTIVE FOR ANNIHILATED PARTICLES BETWEEN LAMBDA = 1 AND LAMBDA = 1
Info: FEP BOND ACTIVE FOR EXNIHILATED PARTICLES BETWEEN LAMBDA = 0 AND LAMBDA = 0
Info: LANGEVIN DYNAMICS ACTIVE
Info: LANGEVIN TEMPERATURE   300
Info: LANGEVIN USING BBK INTEGRATOR
Info: LANGEVIN DAMPING COEFFICIENT IS 1 INVERSE PS
Info: LANGEVIN DYNAMICS APPLIED TO HYDROGENS
Info: LANGEVIN PISTON PRESSURE CONTROL ACTIVE
Info:        TARGET PRESSURE IS 1.01325 BAR
Info:     OSCILLATION PERIOD IS 50 FS
Info:             DECAY TIME IS 25 FS
Info:     PISTON TEMPERATURE IS 300 K
Info:       PRESSURE CONTROL IS GROUP-BASED
Info:    INITIAL STRAIN RATE IS -0.000167812 -0.000167812 -0.000167812
Info:       CELL FLUCTUATION IS ISOTROPIC
Info: PARTICLE MESH EWALD (PME) ACTIVE
Info: PME TOLERANCE               1e-06
Info: PME EWALD COEFFICIENT       0.348832
Info: PME INTERPOLATION ORDER     4
Info: PME GRID DIMENSIONS         32 32 32
Info: PME MAXIMUM GRID SPACING    1
Info: PME CALCULATION WILL BE PERFORMED ON GPU
Info: FULL ELECTROSTATIC EVALUATION FREQUENCY      2
Info: USING VERLET I (r-RESPA) MTS SCHEME.
Info: C1 SPLITTING OF LONG RANGE ELECTROSTATICS
Info: PLACING ATOMS IN PATCHES BY HYDROGEN GROUPS
Info: RIGID BONDS TO HYDROGEN : ALL
Info:         ERROR TOLERANCE : 1e-08
Info:          MAX ITERATIONS : 100
Info: RIGID WATER USING SETTLE ALGORITHM
Info: RANDOM NUMBER SEED     1744002320
Info: USE HYDROGEN BONDS?    NO
Info: Using AMBER format force field!
Info: AMBER PARM FILE        mobley_4690963.prmtop
Info: COORDINATE PDB         mobley_4690963.pdb
Info: Exclusions will be read from PARM file!
Info: SCNB (VDW SCALING)     2
Info: USING ARITHMETIC MEAN TO COMBINE L-J SIGMA PARAMETERS
Info: BINARY COORDINATES     mobley_4690963_equil.coor
Info: SUMMARY OF PARAMETERS:
Info: 6 BONDS
Info: 7 ANGLES
Info:   7 HARMONIC
Info:   0 COSINE-BASED
Info: 8 DIHEDRAL
Info: 0 IMPROPER
Info: 0 CROSSTERM
Info: 0 VDW
Info: 21 VDW_PAIRS
Info: 0 NBTHOLE_PAIRS
Info: To read alchdata from file: mobley_4690963.pdb
Info: To read alchflag data from column: 5
Info: STRUCTURE SUMMARY:
Info: 2953 ATOMS
Info: 2952 BONDS
Info: 38 ANGLES
Info: 54 DIHEDRALS
Info: 0 IMPROPERS
Info: 0 CROSSTERMS
Info: 3029 EXCLUSIONS
Info: 2945 RIGID BONDS
Info: ALCH: 0 ATOMS TO DISAPPEAR IN FINAL STATE
Info: ALCH: 22 ATOMS TO APPEAR IN FINAL STATE
Info: 5914 DEGREES OF FREEDOM
Info: 985 HYDROGEN GROUPS
Info: 4 ATOMS IN LARGEST HYDROGEN GROUP
Info: 985 MIGRATION GROUPS
Info: 4 ATOMS IN LARGEST MIGRATION GROUP
Info: TOTAL MASS = 17719.8 amu
Info: TOTAL CHARGE = -0.000399999 e
Info: MASS DENSITY = 0.973905 g/cm^3
Info: ATOM DENSITY = 0.0977377 atoms/A^3
Info: ADDED 0 IMPLICIT EXCLUSIONS
Info: NONBONDED TABLE R-SQUARED SPACING: 0.0625
Info: NONBONDED TABLE SIZE: 705 POINTS
Info: REMOVING COM VELOCITY 0.0312778 0.00950948 0.135062
Info: Use 3D box decompostion in PME FFT.
Info: Updated CUDA force table with 4096 elements.
Info: Updated CUDA LJ table with 6 x 6 elements.
Info: Found 19 unique exclusion lists needing 56 bytes
TCL: Running for 1500000 steps
ETITLE: TS BOND ANGLE DIHED IMPRP ELECT VDW BOUNDARY MISC KINETIC TOTAL TEMP POTENTIAL TOTALAVG TEMPAVG PRESSURE GPRESSURE VOLUME PRESSAVG GPRESSAVG
ENERGY: 0 2.5846 8.0962 5.4953 0.0000 -10611.0451 1385.4843 0.0000 0.0000 1769.8868 -7439.4979 301.1997 -9209.3848 -7439.4979 301.1997 -411.8058 -324.2214 30213.5282 -411.8058 -324.2214
ENERGY: 300000 2.1208 8.6267 7.1352 0.0000 -10618.9126 1417.9262 0.0000 0.0000 1705.9870 -7477.1167 290.3252 -9183.1037 -7449.9544 296.6047 -168.7808 -190.1792 30397.5275 -171.2702 -141.4126
ENERGY: 600000 2.4919 10.1768 5.9890 0.0000 -10755.6377 1505.5174 0.0000 0.0000 1744.1110 -7487.3517 296.8132 -9231.4626 -7469.2232 296.9300 281.6214 293.0562 30260.1152 -37.3990 2.2816
ENERGY: 900000 0.3247 10.1523 5.6596 0.0000 -10681.2279 1511.6764 0.0000 0.0000 1775.2821 -7378.1328 302.1179 -9153.4149 -7458.2860 297.2527 838.3996 900.7497 29862.0344 -2.1057 50.7407
ENERGY: 1200000 2.9057 8.8233 4.2456 0.0000 -10665.1561 1450.5531 0.0000 0.0000 1755.9623 -7442.6660 298.8300 -9198.6283 -7450.7088 298.6338 -1.5666 68.4451 30102.3071 -102.2638 -46.0526
ENERGY: 1500000 2.1710 10.2075 6.0893 0.0000 -10747.7878 1500.6378 0.0000 0.0000 1796.2345 -7432.4477 305.6836 -9228.6822 -7458.5912 298.4794 234.0832 320.2770 30425.7682 -103.9153 -42.6910
TCL: Running FEP window   2: Lambda1 0.05   Lambda2 0.1    [dLambda 0.05  ]
TCL: Setting parameter firsttimestep to 0
TCL: Setting parameter alchLambda to 0.05
Info: NONBONDED TABLE R-SQUARED SPACING: 0.0625
Info: NONBONDED TABLE SIZE: 705 POINTS
TCL: Setting parameter alchLambda2 to 0.1
Info: NONBONDED TABLE R-SQUARED SPACING: 0.0625
Info: NONBONDED TABLE SIZE: 705 POINTS
TCL: Running for 1500000 steps
ETITLE: TS BOND ANGLE DIHED IMPRP ELECT VDW BOUNDARY MISC KINETIC TOTAL TEMP POTENTIAL TOTALAVG TEMPAVG PRESSURE GPRESSURE VOLUME PRESSAVG GPRESSAVG
ENERGY: 0 2.1710 10.2075 6.0893 0.0000 -10747.7872 1501.9997 0.0000 0.0000 1795.4033 -7431.9165 305.5421 -9227.3198 -7431.9165 305.5421 236.9717 326.4417 30425.7682 236.9717 326.4417
ENERGY: 300000 4.3186 10.9087 6.8216 0.0000 -10594.3198 1358.0452 0.0000 0.0000 1776.7973 -7437.4285 302.3757 -9214.2257 -7448.5147 306.3307 -871.5258 -819.5983 30229.9221 -350.7603 -278.8002
ENERGY: 600000 4.0088 7.7463 6.5396 0.0000 -10653.5527 1439.1559 0.0000 0.0000 1746.6924 -7449.4097 297.2525 -9196.1021 -7442.9757 304.8882 104.8429 159.2246 30312.5740 -456.3891 -397.0888
ENERGY: 900000 1.6376 13.6630 7.1681 0.0000 -10773.5697 1538.6209 0.0000 0.0000 1787.2606 -7425.2194 304.1564 -9212.4800 -7433.8625 305.8558 692.9934 726.1866 30285.0776 -297.8877 -241.4599
ENERGY: 1200000 2.5056 16.4288 8.6660 0.0000 -10643.8437 1439.8210 0.0000 0.0000 1803.5982 -7372.8241 306.9367 -9176.4223 -7428.6984 303.9997 168.8839 233.3428 30132.3672 -205.3354 -147.4083
ENERGY: 1500000 3.3669 11.1104 6.0794 0.0000 -10618.0662 1415.4723 0.0000 0.0000 1779.4229 -7402.6144 302.8226 -9182.0372 -7437.9595 303.2895 -63.6884 -10.0597 30257.6330 -180.5985 -118.3689
TCL: Running FEP window   3: Lambda1 0.1    Lambda2 0.15000000000000002 [dLambda 0.05000000000000002]
TCL: Setting parameter firsttimestep to 0
TCL: Setting parameter alchLambda to 0.1
Info: NONBONDED TABLE R-SQUARED SPACING: 0.0625
Info: NONBONDED TABLE SIZE: 705 POINTS
TCL: Setting parameter alchLambda2 to 0.15000000000000002
Info: NONBONDED TABLE R-SQUARED SPACING: 0.0625
Info: NONBONDED TABLE SIZE: 705 POINTS
TCL: Running for 1500000 steps
ETITLE: TS BOND ANGLE DIHED IMPRP ELECT VDW BOUNDARY MISC KINETIC TOTAL TEMP POTENTIAL TOTALAVG TEMPAVG PRESSURE GPRESSURE VOLUME PRESSAVG GPRESSAVG
ENERGY: 0 3.3669 11.1104 6.0794 0.0000 -10618.0657 1415.8036 0.0000 0.0000 1778.5545 -7403.1510 302.6748 -9181.7055 -7403.1510 302.6748 -88.8695 -9.4632 30257.6330 -88.8695 -9.4632
ENERGY: 300000 4.7511 13.0368 8.2894 0.0000 -10792.4428 1562.9888 0.0000 0.0000 1767.3172 -7436.0594 300.7624 -9203.3766 -7424.6363 301.3854 874.1607 931.5003 30133.3009 165.1316 201.9099
ENERGY: 600000 1.8280 15.3413 7.0303 0.0000 -10694.8308 1435.3544 0.0000 0.0000 1739.9701 -7495.3066 296.1085 -9235.2768 -7435.8094 299.9758 -175.3675 -181.1329 30383.7689 -23.4468 0.6889
ENERGY: 900000 1.4448 7.9758 9.2365 0.0000 -10603.8336 1387.1071 0.0000 0.0000 1762.1739 -7435.8955 299.8871 -9198.0694 -7434.0944 300.4545 -515.5003 -469.3064 30264.1442 -94.7455 -54.9901
ENERGY: 1200000 0.9600 18.2571 4.0351 0.0000 -10649.0295 1371.7795 0.0000 0.0000 1754.5762 -7499.4215 298.5942 -9253.9977 -7439.0966 300.5594 -494.7961 -414.2545 29969.5910 -78.6368 -28.3218
ENERGY: 1500000 3.0710 10.6208 5.2477 0.0000 -10719.6276 1474.6308 0.0000 0.0000 1799.5891 -7426.4681 306.2545 -9226.0573 -7438.4644 301.3123 340.4602 334.7055 30014.3858 -129.4512 -77.4898
TCL: Running FEP window   4: Lambda1 0.15000000000000002 Lambda2 0.2    [dLambda 0.04999999999999999]
TCL: Setting parameter firsttimestep to 0
TCL: Setting parameter alchLambda to 0.15000000000000002
Info: NONBONDED TABLE R-SQUARED SPACING: 0.0625
Info: NONBONDED TABLE SIZE: 705 POINTS
TCL: Setting parameter alchLambda2 to 0.2
Info: NONBONDED TABLE R-SQUARED SPACING: 0.0625
Info: NONBONDED TABLE SIZE: 705 POINTS
TCL: Running for 1500000 steps
ETITLE: TS BOND ANGLE DIHED IMPRP ELECT VDW BOUNDARY MISC KINETIC TOTAL TEMP POTENTIAL TOTALAVG TEMPAVG PRESSURE GPRESSURE VOLUME PRESSAVG GPRESSAVG
ENERGY: 0 3.0710 10.6208 5.2477 0.0000 -10719.6280 1476.1026 0.0000 0.0000 1798.6491 -7425.9369 306.0945 -9224.5859 -7425.9369 306.0945 262.0864 342.0003 30014.3858 262.0864 342.0003
ENERGY: 300000 1.5022 8.0682 4.6396 0.0000 -10639.1064 1389.5897 0.0000 0.0000 1798.4623 -7436.8444 306.0627 -9235.3066 -7446.8614 301.2134 -235.0322 -204.1490 30198.1144 -126.0400 -79.0773
ENERGY: 600000 5.8215 9.9159 7.4758 0.0000 -10566.9534 1370.3776 0.0000 0.0000 1748.4038 -7424.9588 297.5437 -9173.3626 -7434.2560 299.4722 -552.7312 -461.8822 30138.4158 -319.5321 -251.1939
ENERGY: 900000 2.4125 10.7342 4.9758 0.0000 -10719.1507 1446.8040 0.0000 0.0000 1755.2123 -7499.0120 298.7024 -9254.2242 -7454.1432 299.2580 113.4482 190.8987 29865.5827 -224.4235 -153.8547
ENERGY: 1200000 2.0746 6.6247 6.0552 0.0000 -10710.5421 1464.5854 0.0000 0.0000 1809.7525 -7421.4497 307.9841 -9231.2022 -7451.6440 299.5934 79.7438 140.4251 30432.1275 -160.1236 -84.8646
ENERGY: 1500000 1.9026 13.7008 4.1858 0.0000 -10655.2128 1411.4564 0.0000 0.0000 1797.4343 -7426.5328 305.8878 -9223.9672 -7455.8055 299.6856 -29.2177 14.1743 29808.9795 -168.2622 -104.5611
TCL: Running FEP window   5: Lambda1 0.2    Lambda2 0.25   [dLambda 0.04999999999999999]
TCL: Setting parameter firsttimestep to 0
TCL: Setting parameter alchLambda to 0.2
Info: NONBONDED TABLE R-SQUARED SPACING: 0.0625
Info: NONBONDED TABLE SIZE: 705 POINTS
TCL: Setting parameter alchLambda2 to 0.25
Info: NONBONDED TABLE R-SQUARED SPACING: 0.0625
Info: NONBONDED TABLE SIZE: 705 POINTS
TCL: Running for 1500000 steps
ETITLE: TS BOND ANGLE DIHED IMPRP ELECT VDW BOUNDARY MISC KINETIC TOTAL TEMP POTENTIAL TOTALAVG TEMPAVG PRESSURE GPRESSURE VOLUME PRESSAVG GPRESSAVG
ENERGY: 0 1.9026 13.7008 4.1858 0.0000 -10655.2126 1413.1215 0.0000 0.0000 1796.5420 -7425.7599 305.7359 -9222.3019 -7425.7599 305.7359 -56.9284 30.1197 29808.9795 -56.9284 30.1197
ENERGY: 300000 4.1065 8.0613 4.9023 0.0000 -10625.5861 1389.8161 0.0000 0.0000 1788.6611 -7430.0390 304.3947 -9218.7001 -7468.2973 299.8512 -473.2359 -419.3363 30498.6357 -340.9325 -265.9326
ENERGY: 600000 2.0888 9.1687 3.8779 0.0000 -10689.4397 1467.8647 0.0000 0.0000 1766.2493 -7440.1903 300.5807 -9206.4396 -7444.6621 300.6379 150.7275 240.1373 30300.0601 107.8151 179.6970
ENERGY: 900000 1.5331 10.6914 5.6749 0.0000 -10842.1099 1553.9733 0.0000 0.0000 1740.8017 -7529.4355 296.2500 -9270.2373 -7446.1904 300.8773 922.1586 995.1485 29815.0897 165.1468 235.3783
ENERGY: 1200000 1.1301 13.6343 7.4134 0.0000 -10778.2710 1501.1675 0.0000 0.0000 1759.9128 -7495.0130 299.5023 -9254.9258 -7452.4276 300.9694 626.8024 600.9865 29737.6794 219.4313 281.3621
ENERGY: 1500000 2.4059 12.9372 4.0636 0.0000 -10720.3165 1465.3550 0.0000 0.0000 1719.0144 -7516.5404 292.5422 -9235.5548 -7458.3746 300.4073 121.6423 192.0427 30140.2012 162.9508 227.3825
TCL: Running FEP window   6: Lambda1 0.25   Lambda2 0.3    [dLambda 0.04999999999999999]
TCL: Setting parameter firsttimestep to 0
TCL: Setting parameter alchLambda to 0.25
Info: NONBONDED TABLE R-SQUARED SPACING: 0.0625
Info: NONBONDED TABLE SIZE: 705 POINTS
TCL: Setting parameter alchLambda2 to 0.3
Info: NONBONDED TABLE R-SQUARED SPACING: 0.0625
Info: NONBONDED TABLE SIZE: 705 POINTS
TCL: Running for 1500000 steps
ETITLE: TS BOND ANGLE DIHED IMPRP ELECT VDW BOUNDARY MISC KINETIC TOTAL TEMP POTENTIAL TOTALAVG TEMPAVG PRESSURE GPRESSURE VOLUME PRESSAVG GPRESSAVG
ENERGY: 0 2.4059 12.9372 4.0636 0.0000 -10720.3151 1465.9255 0.0000 0.0000 1718.1065 -7516.8764 292.3877 -9234.9830 -7516.8764 292.3877 104.7861 198.9444 30140.2012 104.7861 198.9444
ENERGY: 300000 2.9007 7.4074 7.9067 0.0000 -10519.2450 1367.8551 0.0000 0.0000 1750.0538 -7383.1213 297.8245 -9133.1751 -7436.8711 297.8717 -190.6362 -179.5826 29933.6867 -172.7291 -106.8755
ENERGY: 600000 1.0520 10.3968 6.3949 0.0000 -10729.5411 1433.0665 0.0000 0.0000 1780.4036 -7498.2273 302.9895 -9278.6309 -7427.9367 301.1041 -185.7364 -130.6827 30439.8382 -17.7606 50.5965
ENERGY: 900000 2.3646 16.3679 7.7281 0.0000 -10700.1289 1414.9997 0.0000 0.0000 1734.4436 -7524.2250 295.1680 -9258.6686 -7445.2173 299.7555 -197.7393 -153.2044 30128.0857 -144.8989 -69.7910
ENERGY: 1200000 2.2950 13.3450 4.1253 0.0000 -10628.0851 1434.8631 0.0000 0.0000 1808.4115 -7365.0452 307.7558 -9173.4567 -7443.2278 299.6362 -135.2765 -95.1043 30968.5304 -161.1351 -96.1541
ENERGY: 1500000 2.0090 8.6365 4.3518 0.0000 -10770.6997 1455.7569 0.0000 0.0000 1754.1795 -7545.7659 298.5266 -9299.9454 -7442.7086 300.0802 64.5885 94.5213 30070.4522 -138.9222 -78.4742
TCL: Running FEP window   7: Lambda1 0.3    Lambda2 0.35   [dLambda 0.04999999999999999]
TCL: Setting parameter firsttimestep to 0
TCL: Setting parameter alchLambda to 0.3
Info: NONBONDED TABLE R-SQUARED SPACING: 0.0625
Info: NONBONDED TABLE SIZE: 705 POINTS
TCL: Setting parameter alchLambda2 to 0.35
Info: NONBONDED TABLE R-SQUARED SPACING: 0.0625
Info: NONBONDED TABLE SIZE: 705 POINTS
TCL: Running for 1500000 steps
ETITLE: TS BOND ANGLE DIHED IMPRP ELECT VDW BOUNDARY MISC KINETIC TOTAL TEMP POTENTIAL TOTALAVG TEMPAVG PRESSURE GPRESSURE VOLUME PRESSAVG GPRESSAVG
ENERGY: 0 2.0090 8.6365 4.3518 0.0000 -10770.6995 1455.9698 0.0000 0.0000 1753.3198 -7546.4126 298.3803 -9299.7323 -7546.4126 298.3803 11.7206 99.6253 30070.4522 11.7206 99.6253
ENERGY: 300000 0.8255 7.4368 7.1773 0.0000 -10576.1880 1365.9520 0.0000 0.0000 1768.5014 -7426.2950 300.9640 -9194.7964 -7480.1490 300.9815 -405.2827 -405.0660 30308.5765 -374.8605 -309.2979
ENERGY: 600000 2.3717 8.9492 4.1773 0.0000 -10618.8361 1438.1713 0.0000 0.0000 1800.3793 -7364.7872 306.3889 -9165.1665 -7451.7689 301.0359 96.0043 112.0101 30397.3961 -191.5527 -126.2960
ENERGY: 900000 1.1686 13.6971 3.7977 0.0000 -10779.2804 1442.4266 0.0000 0.0000 1715.5773 -7602.6130 291.9573 -9318.1903 -7479.0384 298.9593 -376.1442 -302.8715 30218.5724 -207.4638 -130.4591
ENERGY: 1200000 3.0666 7.6723 7.7784 0.0000 -10496.9385 1360.5303 0.0000 0.0000 1791.1939 -7326.6970 304.8258 -9117.8909 -7465.3982 300.0494 -153.0813 -180.9085 30375.0125 -141.8641 -72.1027
ENERGY: 1500000 1.8296 10.5377 6.4524 0.0000 -10722.3072 1480.9298 0.0000 0.0000 1786.2906 -7436.2672 303.9913 -9222.5578 -7464.9587 299.5472 451.6843 481.8899 30358.8482 -89.2354 -13.7810
TCL: Running FEP window   8: Lambda1 0.35   Lambda2 0.39999999999999997 [dLambda 0.04999999999999999]
TCL: Setting parameter firsttimestep to 0
TCL: Setting parameter alchLambda to 0.35
Info: NONBONDED TABLE R-SQUARED SPACING: 0.0625
Info: NONBONDED TABLE SIZE: 705 POINTS
TCL: Setting parameter alchLambda2 to 0.39999999999999997
Info: NONBONDED TABLE R-SQUARED SPACING: 0.0625
Info: NONBONDED TABLE SIZE: 705 POINTS
TCL: Running for 1500000 steps
ETITLE: TS BOND ANGLE DIHED IMPRP ELECT VDW BOUNDARY MISC KINETIC TOTAL TEMP POTENTIAL TOTALAVG TEMPAVG PRESSURE GPRESSURE VOLUME PRESSAVG GPRESSAVG
ENERGY: 0 1.8296 10.5377 6.4524 0.0000 -10722.3079 1480.5603 0.0000 0.0000 1785.4040 -7437.5240 303.8404 -9222.9280 -7437.5240 303.8404 421.7515 485.8253 30358.8482 421.7515 485.8253
ENERGY: 300000 1.4967 7.4164 4.7562 0.0000 -10695.3525 1433.0706 0.0000 0.0000 1770.5504 -7478.0622 301.3126 -9248.6126 -7456.7702 301.0781 -63.8050 41.4953 29931.3116 -179.1272 -89.9832
ENERGY: 600000 3.1336 4.5615 8.1741 0.0000 -10914.7126 1606.1466 0.0000 0.0000 1738.3576 -7554.3391 295.8341 -9292.6968 -7468.6344 299.0286 873.0242 948.7399 30314.9392 67.5067 144.0340
ENERGY: 900000 0.9839 8.0336 5.7320 0.0000 -10664.9871 1502.9648 0.0000 0.0000 1791.5069 -7355.7659 304.8790 -9147.2728 -7470.2346 299.7250 810.8499 842.4988 30502.3685 154.8880 218.9429
ENERGY: 1200000 1.3641 11.8704 4.7006 0.0000 -10579.1538 1386.5728 0.0000 0.0000 1736.7392 -7437.9067 295.5586 -9174.6458 -7462.3756 299.9902 -461.9610 -406.0807 30616.7867 91.6301 158.7601
ENERGY: 1500000 2.2495 12.0252 6.3324 0.0000 -10731.1836 1461.7189 0.0000 0.0000 1753.3178 -7495.5397 298.3800 -9248.8575 -7468.5243 299.0497 281.8762 236.2544 29837.4099 97.9247 160.0383
TCL: Running FEP window   9: Lambda1 0.39999999999999997 Lambda2 0.44999999999999996 [dLambda 0.04999999999999999]
TCL: Setting parameter firsttimestep to 0
TCL: Setting parameter alchLambda to 0.39999999999999997
Info: NONBONDED TABLE R-SQUARED SPACING: 0.0625
Info: NONBONDED TABLE SIZE: 705 POINTS
TCL: Setting parameter alchLambda2 to 0.44999999999999996
Info: NONBONDED TABLE R-SQUARED SPACING: 0.0625
Info: NONBONDED TABLE SIZE: 705 POINTS
TCL: Running for 1500000 steps
ETITLE: TS BOND ANGLE DIHED IMPRP ELECT VDW BOUNDARY MISC KINETIC TOTAL TEMP POTENTIAL TOTALAVG TEMPAVG PRESSURE GPRESSURE VOLUME PRESSAVG GPRESSAVG
ENERGY: 0 2.2495 12.0252 6.3324 0.0000 -10731.1835 1461.8253 0.0000 0.0000 1752.4390 -7496.3121 298.2304 -9248.7511 -7496.3121 298.2304 173.8307 243.9939 29837.4099 173.8307 243.9939
ENERGY: 300000 2.6023 8.8950 7.2493 0.0000 -10794.1950 1528.4822 0.0000 0.0000 1752.0993 -7494.8669 298.1726 -9246.9662 -7461.8993 296.9351 749.1982 737.8808 30026.9224 -35.3768 -17.3677
ENERGY: 600000 1.3962 6.2462 5.8473 0.0000 -10668.0005 1447.7213 0.0000 0.0000 1815.9912 -7390.7982 309.0458 -9206.7894 -7430.6850 301.5233 85.7419 84.3688 30831.1154 66.8198 97.7001
ENERGY: 900000 3.5092 11.3119 3.9396 0.0000 -10757.7500 1491.7841 0.0000 0.0000 1743.6858 -7503.5193 296.7408 -9247.2052 -7443.5214 300.4823 605.8488 664.2008 29770.3960 78.6361 116.5429
ENERGY: 1200000 2.0548 9.1650 6.5947 0.0000 -10527.4132 1352.5011 0.0000 0.0000 1776.8880 -7380.2096 302.3912 -9157.0976 -7444.2458 300.0661 -460.0036 -369.2095 30394.6623 7.0040 49.4028
ENERGY: 1500000 1.7879 6.7217 5.0848 0.0000 -10618.9601 1381.0927 0.0000 0.0000 1793.8405 -7430.4324 305.2762 -9224.2729 -7441.5348 300.7939 -388.4706 -368.4784 30371.6947 -55.8710 -6.2977
TCL: Running FEP window  10: Lambda1 0.44999999999999996 Lambda2 0.49999999999999994 [dLambda 0.04999999999999999]
TCL: Setting parameter firsttimestep to 0
TCL: Setting parameter alchLambda to 0.44999999999999996
Info: NONBONDED TABLE R-SQUARED SPACING: 0.0625
Info: NONBONDED TABLE SIZE: 705 POINTS
TCL: Setting parameter alchLambda2 to 0.49999999999999994
Info: NONBONDED TABLE R-SQUARED SPACING: 0.0625
Info: NONBONDED TABLE SIZE: 705 POINTS
TCL: Running for 1500000 steps
ETITLE: TS BOND ANGLE DIHED IMPRP ELECT VDW BOUNDARY MISC KINETIC TOTAL TEMP POTENTIAL TOTALAVG TEMPAVG PRESSURE GPRESSURE VOLUME PRESSAVG GPRESSAVG
ENERGY: 0 1.7879 6.7218 5.0848 0.0000 -10618.9594 1381.3222 0.0000 0.0000 1792.9602 -7431.0826 305.1263 -9224.0427 -7431.0826 305.1263 -443.1867 -361.9494 30371.6947 -443.1867 -361.9494
ENERGY: 300000 1.3720 9.4042 6.4385 0.0000 -10597.9695 1415.0937 0.0000 0.0000 1785.2978 -7380.3633 303.8224 -9165.6611 -7457.9036 301.3809 102.5096 146.1797 30264.5714 -295.5559 -236.2742
ENERGY: 600000 2.7314 9.2654 4.0827 0.0000 -10655.0522 1392.6219 0.0000 0.0000 1769.8683 -7476.4825 301.1966 -9246.3508 -7457.8493 300.4734 -319.0889 -264.8264 30113.9793 -218.4648 -164.7653
ENERGY: 900000 5.0249 8.9162 3.9038 0.0000 -10642.0129 1385.3738 0.0000 0.0000 1816.8721 -7421.9221 309.1957 -9238.7942 -7443.2785 302.1943 -387.1961 -369.8988 30542.2757 -167.1889 -112.8223
ENERGY: 1200000 4.4345 5.7456 7.0561 0.0000 -10681.5342 1438.7582 0.0000 0.0000 1878.8421 -7346.6976 319.7417 -9225.5397 -7429.7778 302.8297 -120.6933 -14.1623 30500.1466 -219.4621 -165.7643
ENERGY: 1500000 2.4085 8.2416 4.7078 0.0000 -10685.7962 1460.3339 0.0000 0.0000 1798.0918 -7412.0126 305.9996 -9210.1044 -7427.6593 302.8533 246.8886 327.7754 29951.3627 -126.2346 -72.1329
TCL: Running FEP window  11: Lambda1 0.49999999999999994 Lambda2 0.5499999999999999 [dLambda 0.04999999999999999]
TCL: Setting parameter firsttimestep to 0
TCL: Setting parameter alchLambda to 0.49999999999999994
Info: NONBONDED TABLE R-SQUARED SPACING: 0.0625
Info: NONBONDED TABLE SIZE: 705 POINTS
TCL: Setting parameter alchLambda2 to 0.5499999999999999
Info: NONBONDED TABLE R-SQUARED SPACING: 0.0625
Info: NONBONDED TABLE SIZE: 705 POINTS
TCL: Running for 1500000 steps
ETITLE: TS BOND ANGLE DIHED IMPRP ELECT VDW BOUNDARY MISC KINETIC TOTAL TEMP POTENTIAL TOTALAVG TEMPAVG PRESSURE GPRESSURE VOLUME PRESSAVG GPRESSAVG
ENERGY: 0 2.4085 8.2416 4.7078 0.0000 -10685.7962 1460.2976 0.0000 0.0000 1797.2169 -7412.9237 305.8508 -9210.1406 -7412.9237 305.8508 255.8546 338.0260 29951.3627 255.8546 338.0260
ENERGY: 300000 2.6352 11.5909 4.1617 0.0000 -10602.5577 1372.0457 0.0000 0.0000 1756.5398 -7455.5843 298.9283 -9212.1241 -7418.5333 303.2274 -798.5459 -718.3346 30802.6083 -224.7294 -165.1474
ENERGY: 600000 0.9972 10.0980 6.2227 0.0000 -10580.1121 1386.7417 0.0000 0.0000 1780.9511 -7395.1015 303.0826 -9176.0526 -7432.6592 301.7271 -471.5027 -430.8894 30773.6818 -313.2596 -260.1997
ENERGY: 900000 0.4925 10.7283 6.8398 0.0000 -10674.9930 1416.5473 0.0000 0.0000 1750.9882 -7489.3969 297.9836 -9240.3851 -7440.0474 300.3038 -335.1343 -340.7661 30547.2159 -331.9407 -284.2777
ENERGY: 1200000 1.1330 8.1720 5.8914 0.0000 -10700.7956 1540.8676 0.0000 0.0000 1784.0526 -7360.6790 303.6105 -9144.7316 -7437.6867 300.3334 818.8316 918.6276 30773.5283 -171.1360 -116.9848
ENERGY: 1500000 3.9186 10.2034 6.5265 0.0000 -10534.7831 1322.4739 0.0000 0.0000 1743.0908 -7448.5699 296.6396 -9191.6607 -7440.5708 299.9823 -845.7280 -803.1347 30348.3153 -160.8279 -108.2553
TCL: Running FEP window  12: Lambda1 0.5499999999999999 Lambda2 0.6    [dLambda 0.050000000000000044]
TCL: Setting parameter firsttimestep to 0
TCL: Setting parameter alchLambda to 0.5499999999999999
Info: NONBONDED TABLE R-SQUARED SPACING: 0.0625
Info: NONBONDED TABLE SIZE: 705 POINTS
TCL: Setting parameter alchLambda2 to 0.6
Info: NONBONDED TABLE R-SQUARED SPACING: 0.0625
Info: NONBONDED TABLE SIZE: 705 POINTS
TCL: Running for 1500000 steps
ETITLE: TS BOND ANGLE DIHED IMPRP ELECT VDW BOUNDARY MISC KINETIC TOTAL TEMP POTENTIAL TOTALAVG TEMPAVG PRESSURE GPRESSURE VOLUME PRESSAVG GPRESSAVG
ENERGY: 0 3.9186 10.2034 6.5265 0.0000 -10534.8157 1322.9608 0.0000 0.0000 1742.1717 -7449.0346 296.4831 -9191.2063 -7449.0346 296.4831 -876.5193 -789.7306 30348.3153 -876.5193 -789.7306
ENERGY: 300000 1.7971 10.0051 5.5667 0.0000 -10713.9045 1409.9682 0.0000 0.0000 1848.1466 -7438.4207 314.5180 -9286.5673 -7435.7400 302.6219 -189.4448 -167.3752 29945.4774 -167.9456 -113.7262
ENERGY: 600000 0.2844 9.7033 8.2715 0.0000 -10683.4135 1452.6113 0.0000 0.0000 1794.8088 -7417.7341 305.4409 -9212.5429 -7430.3645 303.1872 63.2857 120.8037 30609.2592 -118.9921 -57.9587
ENERGY: 900000 1.7483 6.8387 7.7183 0.0000 -10651.0979 1462.3717 0.0000 0.0000 1719.3316 -7453.0893 292.5962 -9172.4208 -7430.7370 300.7000 410.4415 504.1268 30287.5437 -84.0451 -15.9049
ENERGY: 1200000 3.3436 9.8892 6.3515 0.0000 -10659.0854 1467.6818 0.0000 0.0000 1735.3526 -7436.4667 295.3227 -9171.8193 -7436.6166 299.8460 343.2871 323.3846 30514.7147 -125.5148 -59.2480
ENERGY: 1500000 2.4699 11.1743 6.6440 0.0000 -10658.3840 1402.0027 0.0000 0.0000 1760.8849 -7475.2083 299.6678 -9236.0932 -7440.7689 300.3965 -213.4350 -147.5484 29956.6423 -126.6431 -56.9421
TCL: Running FEP window  13: Lambda1 0.6    Lambda2 0.65   [dLambda 0.050000000000000044]
TCL: Setting parameter firsttimestep to 0
TCL: Setting parameter alchLambda to 0.6
Info: NONBONDED TABLE R-SQUARED SPACING: 0.0625
Info: NONBONDED TABLE SIZE: 705 POINTS
TCL: Setting parameter alchLambda2 to 0.65
Info: NONBONDED TABLE R-SQUARED SPACING: 0.0625
Info: NONBONDED TABLE SIZE: 705 POINTS
TCL: Running for 1500000 steps
ETITLE: TS BOND ANGLE DIHED IMPRP ELECT VDW BOUNDARY MISC KINETIC TOTAL TEMP POTENTIAL TOTALAVG TEMPAVG PRESSURE GPRESSURE VOLUME PRESSAVG GPRESSAVG
ENERGY: 0 2.4699 11.1743 6.6440 0.0000 -10658.0732 1401.7310 0.0000 0.0000 1760.0527 -7476.0014 299.5261 -9236.0541 -7476.0014 299.5261 -228.1422 -139.3887 29956.6423 -228.1422 -139.3887
ENERGY: 300000 0.9767 10.4996 8.8630 0.0000 -10738.5412 1480.6241 0.0000 0.0000 1781.6714 -7455.9063 303.2052 -9237.5778 -7478.4922 299.5206 324.0375 437.3732 30371.6698 -136.6691 -76.1448
ENERGY: 600000 2.2621 11.4053 7.7985 0.0000 -10572.9655 1349.0443 0.0000 0.0000 1770.0464 -7432.4089 301.2269 -9202.4553 -7465.2913 298.5349 -601.2446 -559.1452 30275.8950 -401.0579 -354.0539
ENERGY: 900000 2.8519 10.0787 6.9284 0.0000 -10751.0722 1436.2262 0.0000 0.0000 1718.6357 -7576.3513 292.4778 -9294.9870 -7483.3223 296.8225 -55.1430 -22.4161 29945.6747 -222.7302 -177.4612
ENERGY: 1200000 0.4832 13.7951 5.9676 0.0000 -10714.2740 1441.1700 0.0000 0.0000 1725.9697 -7526.8885 293.7259 -9252.8582 -7476.4716 297.4652 -127.7908 -75.0893 30302.4938 -106.6300 -63.6642
ENERGY: 1500000 0.7022 6.0644 7.2313 0.0000 -10715.2735 1427.1633 0.0000 0.0000 1804.2971 -7469.8151 307.0557 -9274.1122 -7475.3063 298.0403 -48.7828 62.0005 29966.4596 -70.7807 -20.0167
TCL: Running FEP window  14: Lambda1 0.65   Lambda2 0.7000000000000001 [dLambda 0.050000000000000044]
TCL: Setting parameter firsttimestep to 0
TCL: Setting parameter alchLambda to 0.65
Info: NONBONDED TABLE R-SQUARED SPACING: 0.0625
Info: NONBONDED TABLE SIZE: 705 POINTS
TCL: Setting parameter alchLambda2 to 0.7000000000000001
Info: NONBONDED TABLE R-SQUARED SPACING: 0.0625
Info: NONBONDED TABLE SIZE: 705 POINTS
TCL: Running for 1500000 steps
ETITLE: TS BOND ANGLE DIHED IMPRP ELECT VDW BOUNDARY MISC KINETIC TOTAL TEMP POTENTIAL TOTALAVG TEMPAVG PRESSURE GPRESSURE VOLUME PRESSAVG GPRESSAVG
ENERGY: 0 0.7022 6.0644 7.2313 0.0000 -10715.8738 1427.7682 0.0000 0.0000 1803.4004 -7470.7073 306.9031 -9274.1077 -7470.7073 306.9031 -22.0651 79.0808 29966.4596 -22.0651 79.0808
ENERGY: 300000 0.6944 8.3220 6.9056 0.0000 -10580.3817 1358.6628 0.0000 0.0000 1805.9379 -7399.8590 307.3349 -9205.7968 -7419.8052 306.4780 -567.3476 -530.5857 30863.3095 -112.8450 -34.0308
ENERGY: 600000 1.8140 9.9457 4.5787 0.0000 -10636.1748 1465.1173 0.0000 0.0000 1808.8896 -7345.8295 307.8372 -9154.7191 -7413.5247 307.2249 228.7368 300.6681 30737.5959 14.6944 90.4964
ENERGY: 900000 2.1711 14.4201 5.3411 0.0000 -10699.7795 1490.9389 0.0000 0.0000 1810.7544 -7376.1539 308.1546 -9186.9084 -7420.7465 306.0313 436.6178 547.1847 30337.0854 -2.9750 78.3852
ENERGY: 1200000 2.3479 10.6138 4.8156 0.0000 -10686.9987 1389.7329 0.0000 0.0000 1809.7899 -7469.6985 307.9904 -9279.4884 -7431.0571 305.5987 -264.2843 -278.6487 30343.7020 -51.7096 13.9865
ENERGY: 1500000 3.7635 11.3800 4.8590 0.0000 -10645.4382 1439.5754 0.0000 0.0000 1774.7786 -7411.0817 302.0322 -9185.8603 -7437.2547 304.5093 -147.7199 -55.6258 30502.5036 -138.5148 -70.9875
TCL: Running FEP window  15: Lambda1 0.7000000000000001 Lambda2 0.7500000000000001 [dLambda 0.050000000000000044]
TCL: Setting parameter firsttimestep to 0
TCL: Setting parameter alchLambda to 0.7000000000000001
Info: NONBONDED TABLE R-SQUARED SPACING: 0.0625
Info: NONBONDED TABLE SIZE: 705 POINTS
TCL: Setting parameter alchLambda2 to 0.7500000000000001
Info: NONBONDED TABLE R-SQUARED SPACING: 0.0625
Info: NONBONDED TABLE SIZE: 705 POINTS
TCL: Running for 1500000 steps
ETITLE: TS BOND ANGLE DIHED IMPRP ELECT VDW BOUNDARY MISC KINETIC TOTAL TEMP POTENTIAL TOTALAVG TEMPAVG PRESSURE GPRESSURE VOLUME PRESSAVG GPRESSAVG
ENERGY: 0 3.7635 11.3800 4.8590 0.0000 -10646.2912 1440.2286 0.0000 0.0000 1773.8704 -7412.1896 301.8776 -9186.0600 -7412.1896 301.8776 -129.9781 -42.3531 30502.5036 -129.9781 -42.3531
ENERGY: 300000 2.2544 8.4884 6.1268 0.0000 -10642.0984 1409.3128 0.0000 0.0000 1762.8527 -7453.0632 300.0027 -9215.9160 -7444.2309 299.8305 -289.6904 -180.5517 30407.5243 26.9512 86.6927
ENERGY: 600000 2.5624 12.3990 5.9154 0.0000 -10544.4192 1399.4414 0.0000 0.0000 1781.1240 -7342.9771 303.1121 -9124.1011 -7440.0340 300.1009 149.7969 202.7072 30284.1346 -71.6800 -19.7207
ENERGY: 900000 1.2344 6.0207 4.9868 0.0000 -10783.2656 1524.6596 0.0000 0.0000 1778.4357 -7467.9284 302.6546 -9246.3641 -7443.3380 300.2851 480.5784 562.6825 30751.4642 -96.2151 -36.7720
ENERGY: 1200000 2.0362 10.2304 6.9953 0.0000 -10753.8073 1451.5228 0.0000 0.0000 1745.8751 -7537.1475 297.1134 -9283.0225 -7442.8746 300.7517 26.5872 92.7616 30040.3081 -83.7886 -23.7048
ENERGY: 1500000 1.8376 10.5444 6.2875 0.0000 -10709.3542 1397.7671 0.0000 0.0000 1718.8105 -7574.1072 292.5075 -9292.9176 -7452.8978 299.8909 -262.5195 -227.0099 30008.1245 -135.8758 -78.6741
TCL: Running FEP window  16: Lambda1 0.7500000000000001 Lambda2 0.8000000000000002 [dLambda 0.050000000000000044]
TCL: Setting parameter firsttimestep to 0
TCL: Setting parameter alchLambda to 0.7500000000000001
Info: NONBONDED TABLE R-SQUARED SPACING: 0.0625
Info: NONBONDED TABLE SIZE: 705 POINTS
TCL: Setting parameter alchLambda2 to 0.8000000000000002
Info: NONBONDED TABLE R-SQUARED SPACING: 0.0625
Info: NONBONDED TABLE SIZE: 705 POINTS
TCL: Running for 1500000 steps
ETITLE: TS BOND ANGLE DIHED IMPRP ELECT VDW BOUNDARY MISC KINETIC TOTAL TEMP POTENTIAL TOTALAVG TEMPAVG PRESSURE GPRESSURE VOLUME PRESSAVG GPRESSAVG
ENERGY: 0 1.8376 10.5444 6.2875 0.0000 -10709.9238 1398.2532 0.0000 0.0000 1717.9446 -7575.0565 292.3602 -9293.0011 -7575.0565 292.3602 -300.6989 -210.6407 30008.1245 -300.6989 -210.6407
ENERGY: 300000 4.5601 12.2027 4.2967 0.0000 -10854.0770 1528.2455 0.0000 0.0000 1706.8753 -7597.8967 290.4764 -9304.7720 -7543.2657 296.1528 383.9405 440.8227 30164.7385 -379.1956 -301.6699
ENERGY: 600000 1.5606 8.2292 6.8898 0.0000 -10751.9515 1534.7666 0.0000 0.0000 1796.9594 -7403.5458 305.8069 -9200.5053 -7495.4379 298.7759 1152.1751 1118.5354 30153.8418 -60.6883 -13.0523
ENERGY: 900000 1.6969 13.6101 6.7620 0.0000 -10562.0117 1373.0466 0.0000 0.0000 1806.5449 -7360.3512 307.4382 -9166.8961 -7482.2779 299.8962 -261.8797 -169.1194 30141.9322 9.3024 63.1707
ENERGY: 1200000 0.8425 10.5567 6.7583 0.0000 -10636.9783 1423.3050 0.0000 0.0000 1782.9931 -7412.5227 303.4301 -9195.5158 -7474.5027 299.6354 183.7848 198.4434 30091.8369 -23.4831 29.4903
ENERGY: 1500000 3.7540 7.7028 5.0207 0.0000 -10730.4275 1490.8415 0.0000 0.0000 1743.6468 -7479.4617 296.7342 -9223.1085 -7469.6114 300.0598 316.4169 370.9779 30436.2544 -48.7718 4.1976
TCL: Running FEP window  17: Lambda1 0.8000000000000002 Lambda2 0.8500000000000002 [dLambda 0.050000000000000044]
TCL: Setting parameter firsttimestep to 0
TCL: Setting parameter alchLambda to 0.8000000000000002
Info: NONBONDED TABLE R-SQUARED SPACING: 0.0625
Info: NONBONDED TABLE SIZE: 705 POINTS
TCL: Setting parameter alchLambda2 to 0.8500000000000002
Info: NONBONDED TABLE R-SQUARED SPACING: 0.0625
Info: NONBONDED TABLE SIZE: 705 POINTS
TCL: Running for 1500000 steps
ETITLE: TS BOND ANGLE DIHED IMPRP ELECT VDW BOUNDARY MISC KINETIC TOTAL TEMP POTENTIAL TOTALAVG TEMPAVG PRESSURE GPRESSURE VOLUME PRESSAVG GPRESSAVG
ENERGY: 0 3.7540 7.7028 5.0207 0.0000 -10730.8145 1491.5047 0.0000 0.0000 1742.7922 -7480.0401 296.5887 -9222.8323 -7480.0401 296.5887 297.3857 387.5580 30436.2544 297.3857 387.5580
ENERGY: 300000 0.9209 9.1206 3.7859 0.0000 -10671.0362 1422.8665 0.0000 0.0000 1797.2975 -7437.0448 305.8645 -9234.3422 -7491.3569 296.4785 392.7089 367.2713 29867.2918 83.3114 131.7754
ENERGY: 600000 3.7657 8.5889 7.9844 0.0000 -10517.5099 1326.5236 0.0000 0.0000 1797.3729 -7373.2744 305.8773 -9170.6473 -7457.9382 299.3127 -703.0587 -619.0279 30493.9860 49.1793 108.1542
ENERGY: 900000 2.4414 12.8155 4.5337 0.0000 -10678.2714 1427.9269 0.0000 0.0000 1807.0057 -7423.5482 307.5166 -9230.5539 -7446.3614 299.9007 176.4809 190.9766 30021.5434 -18.3975 34.9961
ENERGY: 1200000 0.8354 12.5834 6.5163 0.0000 -10709.0503 1415.6305 0.0000 0.0000 1822.6700 -7450.8148 310.1824 -9273.4848 -7448.2922 300.4812 63.3457 120.6541 29787.7174 -11.0509 44.3313
ENERGY: 1500000 1.5750 7.8409 8.2327 0.0000 -10774.6601 1511.1328 0.0000 0.0000 1795.4850 -7450.3936 305.5560 -9245.8786 -7451.8310 300.2854 480.3526 508.9462 30566.1031 -8.0249 50.6669
TCL: Running FEP window  18: Lambda1 0.8500000000000002 Lambda2 0.9000000000000002 [dLambda 0.050000000000000044]
TCL: Setting parameter firsttimestep to 0
TCL: Setting parameter alchLambda to 0.8500000000000002
Info: NONBONDED TABLE R-SQUARED SPACING: 0.0625
Info: NONBONDED TABLE SIZE: 705 POINTS
TCL: Setting parameter alchLambda2 to 0.9000000000000002
Info: NONBONDED TABLE R-SQUARED SPACING: 0.0625
Info: NONBONDED TABLE SIZE: 705 POINTS
TCL: Running for 1500000 steps
ETITLE: TS BOND ANGLE DIHED IMPRP ELECT VDW BOUNDARY MISC KINETIC TOTAL TEMP POTENTIAL TOTALAVG TEMPAVG PRESSURE GPRESSURE VOLUME PRESSAVG GPRESSAVG
ENERGY: 0 1.5750 7.8409 8.2327 0.0000 -10776.4875 1511.8634 0.0000 0.0000 1794.6173 -7452.3582 305.4084 -9246.9755 -7452.3582 305.4084 454.1103 526.1830 30566.1031 454.1103 526.1830
ENERGY: 300000 2.3425 10.9660 4.5316 0.0000 -10681.3524 1368.9028 0.0000 0.0000 1767.0728 -7527.5367 300.7208 -9294.6096 -7442.2642 304.6654 -898.5307 -863.1910 30690.9796 -390.0126 -350.9449
ENERGY: 600000 2.4748 10.4095 4.1598 0.0000 -10621.1002 1423.1997 0.0000 0.0000 1777.6278 -7403.2286 302.5171 -9180.8564 -7447.4979 302.7101 -128.7308 -19.3586 30694.0128 -351.0114 -295.0369
ENERGY: 900000 2.1408 15.0677 5.5799 0.0000 -10646.0253 1417.3932 0.0000 0.0000 1780.3483 -7425.4953 302.9801 -9205.8436 -7436.1315 302.5070 -183.8916 -139.7070 30439.6173 -270.7057 -223.1958
ENERGY: 1200000 1.7034 10.0682 3.7766 0.0000 -10621.2019 1378.5258 0.0000 0.0000 1805.2691 -7421.8589 307.2211 -9227.1280 -7438.2882 302.7004 -393.7982 -376.0640 30437.0575 -161.0533 -112.0896
ENERGY: 1500000 1.7863 8.9291 6.2535 0.0000 -10500.5785 1382.6714 0.0000 0.0000 1776.2943 -7324.6439 302.2901 -9100.9382 -7435.2341 302.4601 167.1551 179.1247 30342.9899 -197.6627 -151.4524
TCL: Running FEP window  19: Lambda1 0.9000000000000002 Lambda2 0.9500000000000003 [dLambda 0.050000000000000044]
TCL: Setting parameter firsttimestep to 0
TCL: Setting parameter alchLambda to 0.9000000000000002
Info: NONBONDED TABLE R-SQUARED SPACING: 0.0625
Info: NONBONDED TABLE SIZE: 705 POINTS
TCL: Setting parameter alchLambda2 to 0.9500000000000003
Info: NONBONDED TABLE R-SQUARED SPACING: 0.0625
Info: NONBONDED TABLE SIZE: 705 POINTS
TCL: Running for 1500000 steps
ETITLE: TS BOND ANGLE DIHED IMPRP ELECT VDW BOUNDARY MISC KINETIC TOTAL TEMP POTENTIAL TOTALAVG TEMPAVG PRESSURE GPRESSURE VOLUME PRESSAVG GPRESSAVG
ENERGY: 0 1.7864 8.9291 6.2535 0.0000 -10501.5016 1383.1151 0.0000 0.0000 1775.4179 -7325.9996 302.1410 -9101.4175 -7325.9996 302.1410 118.7914 194.3101 30342.9899 118.7914 194.3101
ENERGY: 300000 1.8265 14.9238 7.9494 0.0000 -10655.9768 1389.9505 0.0000 0.0000 1759.3942 -7481.9323 299.4141 -9241.3266 -7439.7082 299.4212 -411.6627 -357.0229 30518.2827 -124.0462 -60.3395
ENERGY: 600000 2.8616 10.2200 4.5045 0.0000 -10555.9767 1347.5631 0.0000 0.0000 1741.6978 -7449.1296 296.4025 -9190.8275 -7453.8578 299.2588 -676.8375 -607.2950 30583.5817 -50.0011 13.0790
ENERGY: 900000 1.1246 7.1138 5.7666 0.0000 -10688.1399 1439.4406 0.0000 0.0000 1704.8789 -7529.8154 290.1367 -9234.6943 -7460.6764 299.2678 -60.2996 -31.0164 30408.6753 -154.0558 -89.1036
ENERGY: 1200000 1.9926 11.1445 5.6777 0.0000 -10648.2323 1388.8138 0.0000 0.0000 1738.3427 -7502.2610 295.8315 -9240.6037 -7465.2275 299.0790 -150.1129 -69.0743 30131.5195 -117.0790 -54.5562
ENERGY: 1500000 0.8062 14.9048 7.8291 0.0000 -10861.4865 1500.7383 0.0000 0.0000 1785.2417 -7551.9664 303.8128 -9337.2081 -7472.5271 298.9636 469.4744 528.5443 30083.4135 -33.7023 29.7399
TCL: Running FEP window  20: Lambda1 0.9500000000000003 Lambda2 1.0    [dLambda 0.04999999999999971]
TCL: Setting parameter firsttimestep to 0
TCL: Setting parameter alchLambda to 0.9500000000000003
Info: NONBONDED TABLE R-SQUARED SPACING: 0.0625
Info: NONBONDED TABLE SIZE: 705 POINTS
TCL: Setting parameter alchLambda2 to 1.0
Info: NONBONDED TABLE R-SQUARED SPACING: 0.0625
Info: NONBONDED TABLE SIZE: 705 POINTS
TCL: Running for 1500000 steps
ETITLE: TS BOND ANGLE DIHED IMPRP ELECT VDW BOUNDARY MISC KINETIC TOTAL TEMP POTENTIAL TOTALAVG TEMPAVG PRESSURE GPRESSURE VOLUME PRESSAVG GPRESSAVG
ENERGY: 0 0.8062 14.9048 7.8291 0.0000 -10862.5487 1502.1521 0.0000 0.0000 1784.4166 -7552.4399 303.6724 -9336.8564 -7552.4399 303.6724 464.8401 563.7449 30083.4135 464.8401 563.7449
ENERGY: 300000 1.8425 11.2930 6.1826 0.0000 -10651.7098 1372.4116 0.0000 0.0000 1781.6239 -7478.3562 303.1971 -9259.9801 -7518.6763 300.2195 -507.3429 -468.6244 30369.0120 -36.0858 27.8959
ENERGY: 600000 2.9364 12.7606 3.7688 0.0000 -10670.0166 1412.2303 0.0000 0.0000 1802.0120 -7436.3084 306.6668 -9238.3204 -7470.0548 302.6818 -174.4743 -149.6728 30642.6236 6.8568 70.1253
ENERGY: 900000 3.1832 10.8512 4.0239 0.0000 -10724.6001 1457.2162 0.0000 0.0000 1718.0626 -7531.2629 292.3803 -9249.3255 -7485.8265 301.7406 218.4250 231.8155 30301.0045 -47.9175 6.3369
ENERGY: 1200000 1.3795 8.8129 3.4798 0.0000 -10585.9163 1323.7414 0.0000 0.0000 1746.7707 -7501.7320 297.2658 -9248.5027 -7479.2780 301.0139 -1095.2243 -944.1153 30718.5113 -175.2948 -107.6480
ENERGY: 1500000 1.0083 8.6708 5.7873 0.0000 -10717.6159 1480.1593 0.0000 0.0000 1694.7203 -7527.2700 288.4079 -9221.9903 -7479.8513 299.9088 606.5887 597.0519 30267.6277 -139.4442 -79.5929
TCL: Exiting due to exit command.
