Info: SIMULATION PARAMETERS:
Info: TIMESTEP               2
Info: NUMBER OF STEPS        0
Info: STEPS PER CYCLE        10
Info: PERIODIC CELL BASIS 1  29.1418 0 0
Info: PERIODIC CELL BASIS 2  0 29.4592 0
Info: PERIODIC CELL BASIS 3  0 0 34.5925
Info: PERIODIC CELL CENTER   0 0 0
Info: WRAPPING WATERS AROUND PERIODIC BOUNDARIES ON OUTPUT.
Info: WRAPPING ALL CLUSTERS AROUND PERIODIC BOUNDARIES ON OUTPUT.
Info: FIRST LDB TIMESTEP     50
Info: LAST LDB TIMESTEP     -1
Info: HOM BACKGROUND SCALING 1
Info: PME BACKGROUND SCALING 1
Info: MIN ATOMS PER PATCH    40
Info: EMPTY PATCH LOAD       40 ATOMS
Info: VELOCITY FILE          mobley_4587267_equil.vel
Info: CENTER OF MASS MOVING INITIALLY? NO
Info: DIELECTRIC             1
Info: EXCLUDE                SCALED ONE-FOUR
Info: 1-4 ELECTROSTATICS SCALED BY 0.833333
Info: MODIFIED 1-4 VDW PARAMETERS WILL BE USED
Info: DCD FILENAME           mobley_4587267_prod.dcd
Info: DCD FREQUENCY          100000
Info: DCD FIRST STEP         100000
Info: DCD FILE WILL CONTAIN UNIT CELL DATA
Info: XST FILENAME           mobley_4587267_prod.xst
Info: XST FREQUENCY          100000
Info: NO VELOCITY DCD OUTPUT
Info: NO FORCE DCD OUTPUT
Info: OUTPUT FILENAME        mobley_4587267_prod
Info: BINARY OUTPUT FILES WILL BE USED
Info: RESTART FILENAME       mobley_4587267_prod.restart
Info: RESTART FREQUENCY      100000
Info: BINARY RESTART FILES WILL BE USED
Info: CUTOFF                 9
Info: PAIRLIST DISTANCE      11
Info: PAIRLIST SHRINK RATE   0.01
Info: PAIRLIST GROW RATE     0.01
Info: PAIRLIST TRIGGER       0.3
Info: PAIRLISTS PER CYCLE    2
Info: PAIRLISTS ENABLED
Info: MARGIN                 2
Info: HYDROGEN GROUP CUTOFF  2.5
Info: PATCH DIMENSION        15.5
Info: ENERGY OUTPUT STEPS    100000
Info: ENERGY EVALUATION STEPS    100000
Info: OUTPUT ENERGY PRECISION 4
Info: CROSSTERM ENERGY INCLUDED IN DIHEDRAL
Info: TIMING OUTPUT STEPS    1000000
Info: PRESSURE OUTPUT STEPS  100000
Info: ALCHEMICAL FEP ON
Info: FEP CURRENT LAMBDA VALUE     1
Info: FEP COMPARISON LAMBDA VALUE  0.95
Info: FEP INTRA-ALCHEMICAL NON-BONDED INTERACTIONS WILL BE RETAINED
Info: FEP INTRA-ALCHEMICAL BONDED INTERACTIONS WILL BE RETAINED
Info: FEP VDW SHIFTING COEFFICIENT 5
Info: FEP ELEC. ACTIVE FOR ANNIHILATED PARTICLES BETWEEN LAMBDA = 0 AND LAMBDA = 0.5
Info: FEP ELEC. ACTIVE FOR EXNIHILATED PARTICLES BETWEEN LAMBDA = 0.5 AND LAMBDA = 1
Info: FEP VDW ACTIVE FOR ANNIHILATED PARTICLES BETWEEN LAMBDA = 0 AND LAMBDA = 1
Info: FEP VDW ACTIVE FOR EXNIHILATED PARTICLES BETWEEN LAMBDA = 0 AND LAMBDA = 1
Info: FEP BOND ACTIVE FOR ANNIHILATED PARTICLES BETWEEN LAMBDA = 1 AND LAMBDA = 1
Info: FEP BOND ACTIVE FOR EXNIHILATED PARTICLES BETWEEN LAMBDA = 0 AND LAMBDA = 0
Info: LANGEVIN DYNAMICS ACTIVE
Info: LANGEVIN TEMPERATURE   300
Info: LANGEVIN USING BBK INTEGRATOR
Info: LANGEVIN DAMPING COEFFICIENT IS 1 INVERSE PS
Info: LANGEVIN DYNAMICS APPLIED TO HYDROGENS
Info: LANGEVIN PISTON PRESSURE CONTROL ACTIVE
Info:        TARGET PRESSURE IS 1.01325 BAR
Info:     OSCILLATION PERIOD IS 50 FS
Info:             DECAY TIME IS 25 FS
Info:     PISTON TEMPERATURE IS 300 K
Info:       PRESSURE CONTROL IS GROUP-BASED
Info:    INITIAL STRAIN RATE IS -0.000138562 -0.000138562 -0.000138562
Info:       CELL FLUCTUATION IS ISOTROPIC
Info: PARTICLE MESH EWALD (PME) ACTIVE
Info: PME TOLERANCE               1e-06
Info: PME EWALD COEFFICIENT       0.348832
Info: PME INTERPOLATION ORDER     4
Info: PME GRID DIMENSIONS         32 32 36
Info: PME MAXIMUM GRID SPACING    1
Info: PME CALCULATION WILL BE PERFORMED ON GPU
Info: FULL ELECTROSTATIC EVALUATION FREQUENCY      2
Info: USING VERLET I (r-RESPA) MTS SCHEME.
Info: C1 SPLITTING OF LONG RANGE ELECTROSTATICS
Info: PLACING ATOMS IN PATCHES BY HYDROGEN GROUPS
Info: RIGID BONDS TO HYDROGEN : ALL
Info:         ERROR TOLERANCE : 1e-08
Info:          MAX ITERATIONS : 100
Info: RIGID WATER USING SETTLE ALGORITHM
Info: RANDOM NUMBER SEED     1744036366
Info: USE HYDROGEN BONDS?    NO
Info: Using AMBER format force field!
Info: AMBER PARM FILE        mobley_4587267.prmtop
Info: COORDINATE PDB         mobley_4587267.pdb
Info: Exclusions will be read from PARM file!
Info: SCNB (VDW SCALING)     2
Info: USING ARITHMETIC MEAN TO COMBINE L-J SIGMA PARAMETERS
Info: BINARY COORDINATES     mobley_4587267_equil.coor
Info: SUMMARY OF PARAMETERS:
Info: 6 BONDS
Info: 6 ANGLES
Info:   6 HARMONIC
Info:   0 COSINE-BASED
Info: 10 DIHEDRAL
Info: 0 IMPROPER
Info: 0 CROSSTERM
Info: 0 VDW
Info: 15 VDW_PAIRS
Info: 0 NBTHOLE_PAIRS
Info: To read alchdata from file: mobley_4587267.pdb
Info: To read alchflag data from column: 5
Info: STRUCTURE SUMMARY:
Info: 2942 ATOMS
Info: 2941 BONDS
Info: 42 ANGLES
Info: 96 DIHEDRALS
Info: 0 IMPROPERS
Info: 0 CROSSTERMS
Info: 3046 EXCLUSIONS
Info: 2930 RIGID BONDS
Info: ALCH: 0 ATOMS TO DISAPPEAR IN FINAL STATE
Info: ALCH: 26 ATOMS TO APPEAR IN FINAL STATE
Info: 5896 DEGREES OF FREEDOM
Info: 984 HYDROGEN GROUPS
Info: 3 ATOMS IN LARGEST HYDROGEN GROUP
Info: 984 MIGRATION GROUPS
Info: 3 ATOMS IN LARGEST MIGRATION GROUP
Info: TOTAL MASS = 17693.7 amu
Info: TOTAL CHARGE = -1.41561e-07 e
Info: MASS DENSITY = 0.989371 g/cm^3
Info: ATOM DENSITY = 0.0990657 atoms/A^3
Info: ADDED 0 IMPLICIT EXCLUSIONS
Info: NONBONDED TABLE R-SQUARED SPACING: 0.0625
Info: NONBONDED TABLE SIZE: 705 POINTS
Info: REMOVING COM VELOCITY 0.0384351 -0.039208 -0.170248
Info: Use 3D box decompostion in PME FFT.
Info: Updated CUDA force table with 4096 elements.
Info: Updated CUDA LJ table with 5 x 5 elements.
Info: Found 29 unique exclusion lists needing 100 bytes
TCL: Running for 1500000 steps
ETITLE: TS BOND ANGLE DIHED IMPRP ELECT VDW BOUNDARY MISC KINETIC TOTAL TEMP POTENTIAL TOTALAVG TEMPAVG PRESSURE GPRESSURE VOLUME PRESSAVG GPRESSAVG
ENERGY: 0 9.2632 15.1829 14.5762 0.0000 -10683.3616 1486.2065 0.0000 0.0000 1740.1719 -7417.9610 297.0469 -9158.1329 -7417.9610 297.0469 650.6991 733.9767 29697.4609 650.6991 733.9767
ENERGY: 300000 4.0899 15.2641 13.0953 0.0000 -10561.0519 1402.9706 0.0000 0.0000 1707.4529 -7418.1791 291.4618 -9125.6320 -7395.0697 298.4150 43.7209 116.5553 29799.9959 -137.6098 -68.9050
ENERGY: 600000 3.3999 17.3131 11.5027 0.0000 -10575.6163 1376.9844 0.0000 0.0000 1764.1536 -7402.2625 301.1406 -9166.4161 -7389.1723 299.0234 -437.5706 -351.5211 30314.7220 -236.9598 -161.8821
ENERGY: 900000 4.5094 19.3527 11.0768 0.0000 -10498.4891 1371.6178 0.0000 0.0000 1772.7232 -7319.2092 302.6034 -9091.9324 -7392.8935 299.9148 -106.1139 -9.1111 29944.0280 -203.3236 -132.4619
ENERGY: 1200000 4.8368 12.2283 12.4043 0.0000 -10729.4040 1515.2469 0.0000 0.0000 1803.8050 -7380.8827 307.9091 -9184.6877 -7391.3998 300.0490 739.7421 824.5684 30135.1283 -134.1488 -61.6809
ENERGY: 1500000 4.5083 9.5839 12.2290 0.0000 -10482.7730 1358.4204 0.0000 0.0000 1699.7795 -7398.2519 290.1519 -9098.0313 -7390.9837 299.2747 -474.8281 -468.1904 30380.8581 -176.0365 -112.7090
TCL: Running FEP window   2: Lambda1 0.95   Lambda2 0.8999999999999999 [dLambda -0.050000000000000044]
TCL: Setting parameter firsttimestep to 0
TCL: Setting parameter alchLambda to 0.95
Info: NONBONDED TABLE R-SQUARED SPACING: 0.0625
Info: NONBONDED TABLE SIZE: 705 POINTS
TCL: Setting parameter alchLambda2 to 0.8999999999999999
Info: NONBONDED TABLE R-SQUARED SPACING: 0.0625
Info: NONBONDED TABLE SIZE: 705 POINTS
TCL: Running for 1500000 steps
ETITLE: TS BOND ANGLE DIHED IMPRP ELECT VDW BOUNDARY MISC KINETIC TOTAL TEMP POTENTIAL TOTALAVG TEMPAVG PRESSURE GPRESSURE VOLUME PRESSAVG GPRESSAVG
ENERGY: 0 4.5083 9.5839 12.2290 0.0000 -10476.4433 1354.7688 0.0000 0.0000 1698.8891 -7396.4642 290.0000 -9095.3534 -7396.4642 290.0000 -586.9865 -514.5975 30380.8581 -586.9865 -514.5975
ENERGY: 300000 3.7733 7.8557 11.5699 0.0000 -10685.7442 1512.2351 0.0000 0.0000 1761.4402 -7388.8700 300.6774 -9150.3101 -7373.4950 296.9195 818.8157 848.2170 30173.7747 55.6410 78.9710
ENERGY: 600000 4.3855 12.2543 13.4736 0.0000 -10645.6314 1463.2882 0.0000 0.0000 1714.2637 -7437.9661 292.6244 -9152.2298 -7382.5215 297.9221 293.0668 372.7860 30162.6595 17.4380 70.1657
ENERGY: 900000 2.9704 10.0243 11.2203 0.0000 -10606.8288 1441.0970 0.0000 0.0000 1708.6914 -7432.8255 291.6732 -9141.5169 -7391.7057 298.1414 219.4273 220.2155 30138.3842 147.0408 192.9454
ENERGY: 1200000 3.5359 5.5182 12.2308 0.0000 -10753.7161 1514.4080 0.0000 0.0000 1750.4140 -7467.6091 298.7953 -9218.0231 -7394.8451 297.8866 423.6935 516.3964 30070.0949 159.9779 205.4156
ENERGY: 1500000 9.0300 15.8871 13.6485 0.0000 -10568.5410 1365.0947 0.0000 0.0000 1762.0970 -7402.7837 300.7895 -9164.8806 -7387.8516 299.3045 -912.1819 -792.1922 30435.6999 84.2646 143.4880
TCL: Running FEP window   3: Lambda1 0.8999999999999999 Lambda2 0.8499999999999999 [dLambda -0.050000000000000044]
TCL: Setting parameter firsttimestep to 0
TCL: Setting parameter alchLambda to 0.8999999999999999
Info: NONBONDED TABLE R-SQUARED SPACING: 0.0625
Info: NONBONDED TABLE SIZE: 705 POINTS
TCL: Setting parameter alchLambda2 to 0.8499999999999999
Info: NONBONDED TABLE R-SQUARED SPACING: 0.0625
Info: NONBONDED TABLE SIZE: 705 POINTS
TCL: Running for 1500000 steps
ETITLE: TS BOND ANGLE DIHED IMPRP ELECT VDW BOUNDARY MISC KINETIC TOTAL TEMP POTENTIAL TOTALAVG TEMPAVG PRESSURE GPRESSURE VOLUME PRESSAVG GPRESSAVG
ENERGY: 0 9.0300 15.8871 13.6485 0.0000 -10562.4668 1362.3046 0.0000 0.0000 1761.2170 -7400.3796 300.6393 -9161.5966 -7400.3796 300.6393 -896.5426 -820.7211 30435.6999 -896.5426 -820.7211
ENERGY: 300000 3.3435 14.7851 12.1288 0.0000 -10526.5050 1344.8833 0.0000 0.0000 1736.9466 -7414.4177 296.4964 -9151.3643 -7403.8294 296.3843 -669.8027 -597.4938 30154.4842 -470.7095 -417.3145
ENERGY: 600000 3.8362 11.7809 11.1550 0.0000 -10715.6687 1462.4824 0.0000 0.0000 1766.4866 -7459.9275 301.5388 -9226.4141 -7429.5191 298.0246 384.7031 399.4090 29599.8503 -254.9496 -210.4910
ENERGY: 900000 4.4044 14.2899 14.1796 0.0000 -10689.9511 1474.7588 0.0000 0.0000 1764.1626 -7418.1558 301.1421 -9182.3184 -7420.9015 299.0372 271.2738 294.9961 29998.4999 -131.0323 -79.6423
ENERGY: 1200000 4.0016 10.4152 10.9428 0.0000 -10493.7489 1368.5432 0.0000 0.0000 1780.9881 -7318.8579 304.0142 -9099.8460 -7402.8937 300.6132 -232.8007 -207.1453 30336.9087 -135.3752 -78.4844
ENERGY: 1500000 3.0050 10.6924 11.5050 0.0000 -10531.3779 1405.4975 0.0000 0.0000 1756.9421 -7343.7359 299.9096 -9100.6780 -7396.7714 300.2447 151.0131 143.6285 30225.2641 -106.8457 -50.5043
TCL: Running FEP window   4: Lambda1 0.8499999999999999 Lambda2 0.7999999999999998 [dLambda -0.050000000000000044]
TCL: Setting parameter firsttimestep to 0
TCL: Setting parameter alchLambda to 0.8499999999999999
Info: NONBONDED TABLE R-SQUARED SPACING: 0.0625
Info: NONBONDED TABLE SIZE: 705 POINTS
TCL: Setting parameter alchLambda2 to 0.7999999999999998
Info: NONBONDED TABLE R-SQUARED SPACING: 0.0625
Info: NONBONDED TABLE SIZE: 705 POINTS
TCL: Running for 1500000 steps
ETITLE: TS BOND ANGLE DIHED IMPRP ELECT VDW BOUNDARY MISC KINETIC TOTAL TEMP POTENTIAL TOTALAVG TEMPAVG PRESSURE GPRESSURE VOLUME PRESSAVG GPRESSAVG
ENERGY: 0 3.0050 10.6924 11.5050 0.0000 -10526.5644 1403.8381 0.0000 0.0000 1756.1046 -7341.4193 299.7666 -9097.5239 -7341.4193 299.7666 59.5063 120.9223 30225.2641 59.5063 120.9223
ENERGY: 300000 4.9908 18.8117 13.1135 0.0000 -10618.3224 1421.8579 0.0000 0.0000 1795.5452 -7364.0033 306.4991 -9159.5485 -7356.6194 301.3131 -236.8022 -164.4990 30259.1646 -176.2643 -96.3591
ENERGY: 600000 9.2533 11.2192 11.4621 0.0000 -10555.6252 1362.5795 0.0000 0.0000 1781.8808 -7379.2303 304.1666 -9161.1111 -7356.0404 301.8988 -691.7205 -638.8977 30278.5075 -103.5957 -39.2438
ENERGY: 900000 5.1522 7.8115 10.7247 0.0000 -10720.5208 1496.9886 0.0000 0.0000 1739.0997 -7460.7440 296.8639 -9199.8438 -7360.8984 300.3317 423.9992 466.9233 30159.5074 4.5016 56.9436
ENERGY: 1200000 4.2270 13.4123 10.6329 0.0000 -10597.5447 1443.6502 0.0000 0.0000 1704.4761 -7421.1462 290.9537 -9125.6223 -7371.1767 299.4522 194.5606 281.0517 29911.9059 37.2153 98.7857
ENERGY: 1500000 4.7546 7.6028 12.1802 0.0000 -10480.2892 1312.4377 0.0000 0.0000 1763.4616 -7379.8523 301.0225 -9143.3139 -7374.2532 299.2199 -972.5387 -887.7820 30401.9281 -59.1418 2.3260
TCL: Running FEP window   5: Lambda1 0.7999999999999998 Lambda2 0.7499999999999998 [dLambda -0.050000000000000044]
TCL: Setting parameter firsttimestep to 0
TCL: Setting parameter alchLambda to 0.7999999999999998
Info: NONBONDED TABLE R-SQUARED SPACING: 0.0625
Info: NONBONDED TABLE SIZE: 705 POINTS
TCL: Setting parameter alchLambda2 to 0.7499999999999998
Info: NONBONDED TABLE R-SQUARED SPACING: 0.0625
Info: NONBONDED TABLE SIZE: 705 POINTS
TCL: Running for 1500000 steps
ETITLE: TS BOND ANGLE DIHED IMPRP ELECT VDW BOUNDARY MISC KINETIC TOTAL TEMP POTENTIAL TOTALAVG TEMPAVG PRESSURE GPRESSURE VOLUME PRESSAVG GPRESSAVG
ENERGY: 0 4.7546 7.6028 12.1802 0.0000 -10475.1307 1310.7085 0.0000 0.0000 1762.6195 -7377.2651 300.8787 -9139.8847 -7377.2651 300.8787 -1000.3414 -910.8304 30401.9281 -1000.3414 -910.8304
ENERGY: 300000 6.7616 14.2322 11.4728 0.0000 -10530.3018 1370.8072 0.0000 0.0000 1789.8559 -7337.1719 305.5280 -9127.0278 -7361.3522 300.6858 -385.5027 -314.0195 30134.7371 -255.8003 -173.2589
ENERGY: 600000 2.8851 13.2931 10.9391 0.0000 -10520.4409 1377.1808 0.0000 0.0000 1734.4232 -7381.7196 296.0656 -9116.1428 -7360.7658 299.2609 -375.3158 -295.6460 30186.7218 -33.5311 43.8979
ENERGY: 900000 4.8040 9.0001 14.3036 0.0000 -10535.5891 1405.9479 0.0000 0.0000 1711.7428 -7389.7907 292.1941 -9101.5335 -7371.0504 297.6227 -360.9268 -301.5105 30280.9939 -120.6031 -52.0840
ENERGY: 1200000 2.2551 18.9665 13.8828 0.0000 -10603.7397 1440.5584 0.0000 0.0000 1749.7853 -7378.2917 298.6879 -9128.0769 -7376.1325 297.8417 -118.8534 -40.9368 30480.6011 -22.1253 44.1646
ENERGY: 1500000 5.6244 11.8078 11.7167 0.0000 -10471.6902 1365.4547 0.0000 0.0000 1758.2503 -7318.8364 300.1329 -9077.0867 -7373.1698 298.7114 -457.1727 -365.6868 30316.4454 -68.3462 -2.7397
TCL: Running FEP window   6: Lambda1 0.7499999999999998 Lambda2 0.6999999999999997 [dLambda -0.050000000000000044]
TCL: Setting parameter firsttimestep to 0
TCL: Setting parameter alchLambda to 0.7499999999999998
Info: NONBONDED TABLE R-SQUARED SPACING: 0.0625
Info: NONBONDED TABLE SIZE: 705 POINTS
TCL: Setting parameter alchLambda2 to 0.6999999999999997
Info: NONBONDED TABLE R-SQUARED SPACING: 0.0625
Info: NONBONDED TABLE SIZE: 705 POINTS
TCL: Running for 1500000 steps
ETITLE: TS BOND ANGLE DIHED IMPRP ELECT VDW BOUNDARY MISC KINETIC TOTAL TEMP POTENTIAL TOTALAVG TEMPAVG PRESSURE GPRESSURE VOLUME PRESSAVG GPRESSAVG
ENERGY: 0 5.6244 11.8077 11.7167 0.0000 -10466.7677 1363.4127 0.0000 0.0000 1757.4034 -7316.8028 299.9883 -9074.2062 -7316.8028 299.9883 -485.8622 -390.5476 30316.4454 -485.8622 -390.5476
ENERGY: 300000 3.7977 15.7170 11.4608 0.0000 -10592.2255 1442.5585 0.0000 0.0000 1699.7911 -7418.9004 290.1539 -9118.6915 -7368.3665 298.6874 -298.7727 -246.6418 30804.3223 -238.9731 -174.8598
ENERGY: 600000 4.2817 13.7859 12.5721 0.0000 -10620.3731 1444.4546 0.0000 0.0000 1719.8111 -7425.4677 293.5713 -9145.2788 -7387.1182 297.2295 -271.1761 -193.2834 30738.7917 -225.9334 -162.0781
ENERGY: 900000 5.7232 11.2214 14.9367 0.0000 -10472.9456 1378.6218 0.0000 0.0000 1751.9719 -7310.4706 299.0612 -9062.4425 -7366.0725 297.7876 -395.6543 -293.5204 30447.9989 -247.6069 -182.8616
ENERGY: 1200000 4.2342 13.8827 14.6747 0.0000 -10608.3248 1453.3927 0.0000 0.0000 1790.6249 -7331.5157 305.6592 -9122.1406 -7362.6478 299.4131 181.9341 253.4607 30114.5947 -129.1949 -49.7306
ENERGY: 1500000 3.1714 11.0234 11.7893 0.0000 -10554.3600 1391.6211 0.0000 0.0000 1762.0240 -7374.7308 300.7771 -9136.7548 -7367.4631 299.1998 -439.4306 -400.3360 30448.3314 -162.8235 -86.3797
TCL: Running FEP window   7: Lambda1 0.6999999999999997 Lambda2 0.6499999999999997 [dLambda -0.050000000000000044]
TCL: Setting parameter firsttimestep to 0
TCL: Setting parameter alchLambda to 0.6999999999999997
Info: NONBONDED TABLE R-SQUARED SPACING: 0.0625
Info: NONBONDED TABLE SIZE: 705 POINTS
TCL: Setting parameter alchLambda2 to 0.6499999999999997
Info: NONBONDED TABLE R-SQUARED SPACING: 0.0625
Info: NONBONDED TABLE SIZE: 705 POINTS
TCL: Running for 1500000 steps
ETITLE: TS BOND ANGLE DIHED IMPRP ELECT VDW BOUNDARY MISC KINETIC TOTAL TEMP POTENTIAL TOTALAVG TEMPAVG PRESSURE GPRESSURE VOLUME PRESSAVG GPRESSAVG
ENERGY: 0 3.1714 11.0234 11.7893 0.0000 -10550.2734 1390.2495 0.0000 0.0000 1761.1510 -7372.8887 300.6281 -9134.0398 -7372.8887 300.6281 -498.1591 -411.5801 30448.3314 -498.1591 -411.5801
ENERGY: 300000 2.9408 11.1708 13.3762 0.0000 -10614.4202 1452.9505 0.0000 0.0000 1789.3398 -7344.6421 305.4399 -9133.9819 -7335.3141 303.1534 282.5290 303.2591 30398.9993 -158.4960 -114.5798
ENERGY: 600000 2.2993 14.7218 10.7874 0.0000 -10521.7553 1414.0787 0.0000 0.0000 1724.9474 -7354.9207 294.4481 -9079.8681 -7331.1607 302.7002 89.2875 74.7239 30281.3186 -36.2498 1.3521
ENERGY: 900000 5.9002 15.0383 11.4117 0.0000 -10433.3572 1338.0825 0.0000 0.0000 1747.4044 -7315.5202 298.2815 -9062.9246 -7328.3316 301.9340 -703.9647 -691.9955 30456.4350 -291.1083 -253.8214
ENERGY: 1200000 3.5583 11.6707 12.0309 0.0000 -10622.1986 1401.4104 0.0000 0.0000 1782.5121 -7411.0161 304.2744 -9193.5282 -7338.7331 302.2273 -298.3985 -245.5099 29889.2889 -158.0192 -114.7091
ENERGY: 1500000 6.3295 10.9077 14.6129 0.0000 -10510.9308 1375.1505 0.0000 0.0000 1788.9620 -7314.9681 305.3754 -9103.9301 -7346.7928 301.5241 -316.1544 -256.6749 30168.3489 -158.8325 -113.9205
TCL: Running FEP window   8: Lambda1 0.6499999999999997 Lambda2 0.5999999999999996 [dLambda -0.050000000000000044]
TCL: Setting parameter firsttimestep to 0
TCL: Setting parameter alchLambda to 0.6499999999999997
Info: NONBONDED TABLE R-SQUARED SPACING: 0.0625
Info: NONBONDED TABLE SIZE: 705 POINTS
TCL: Setting parameter alchLambda2 to 0.5999999999999996
Info: NONBONDED TABLE R-SQUARED SPACING: 0.0625
Info: NONBONDED TABLE SIZE: 705 POINTS
TCL: Running for 1500000 steps
ETITLE: TS BOND ANGLE DIHED IMPRP ELECT VDW BOUNDARY MISC KINETIC TOTAL TEMP POTENTIAL TOTALAVG TEMPAVG PRESSURE GPRESSURE VOLUME PRESSAVG GPRESSAVG
ENERGY: 0 6.3295 10.9077 14.6129 0.0000 -10507.0634 1374.0065 0.0000 0.0000 1788.0687 -7313.1380 305.2229 -9101.2067 -7313.1380 305.2229 -354.0927 -272.6433 30168.3489 -354.0927 -272.6433
ENERGY: 300000 3.5822 14.1762 13.7837 0.0000 -10643.6259 1481.4446 0.0000 0.0000 1788.3783 -7342.2608 305.2758 -9130.6392 -7366.1349 299.8032 100.4583 216.4872 30521.9756 -119.7587 -54.1125
ENERGY: 600000 2.0137 12.6475 11.7888 0.0000 -10760.3506 1555.7585 0.0000 0.0000 1731.2512 -7446.8909 295.5242 -9178.1420 -7381.4534 298.0553 956.5303 968.2000 30179.8338 72.2347 128.8866
ENERGY: 900000 6.3514 13.4625 11.0087 0.0000 -10540.6438 1375.6539 0.0000 0.0000 1715.1708 -7418.9965 292.7792 -9134.1672 -7382.0699 296.8783 -379.8193 -403.1107 30215.5730 -118.4512 -68.4885
ENERGY: 1200000 2.8637 15.6634 12.9814 0.0000 -10529.8943 1388.6808 0.0000 0.0000 1798.5638 -7311.1414 307.0144 -9109.7052 -7386.3033 297.2473 -383.8775 -320.6019 30427.5893 -147.7298 -93.7696
ENERGY: 1500000 4.8587 11.1149 11.0677 0.0000 -10556.9731 1411.7218 0.0000 0.0000 1770.2471 -7347.9630 302.1808 -9118.2101 -7377.8478 297.8407 -279.2568 -245.2711 30395.1895 -178.3778 -118.8526
TCL: Running FEP window   9: Lambda1 0.5999999999999996 Lambda2 0.5499999999999996 [dLambda -0.050000000000000044]
TCL: Setting parameter firsttimestep to 0
TCL: Setting parameter alchLambda to 0.5999999999999996
Info: NONBONDED TABLE R-SQUARED SPACING: 0.0625
Info: NONBONDED TABLE SIZE: 705 POINTS
TCL: Setting parameter alchLambda2 to 0.5499999999999996
Info: NONBONDED TABLE R-SQUARED SPACING: 0.0625
Info: NONBONDED TABLE SIZE: 705 POINTS
TCL: Running for 1500000 steps
ETITLE: TS BOND ANGLE DIHED IMPRP ELECT VDW BOUNDARY MISC KINETIC TOTAL TEMP POTENTIAL TOTALAVG TEMPAVG PRESSURE GPRESSURE VOLUME PRESSAVG GPRESSAVG
ENERGY: 0 4.8586 11.1149 11.0677 0.0000 -10556.3848 1412.0067 0.0000 0.0000 1769.3960 -7347.9409 302.0355 -9117.3369 -7347.9409 302.0355 -337.6815 -255.1603 30395.1895 -337.6815 -255.1603
ENERGY: 300000 6.6707 8.2649 12.6308 0.0000 -10639.2281 1452.4024 0.0000 0.0000 1719.9678 -7439.2914 293.5981 -9159.2593 -7393.2818 296.3639 299.2814 381.3557 29624.8020 -39.4977 38.3515
ENERGY: 600000 2.5988 13.4052 14.2064 0.0000 -10614.1646 1502.3259 0.0000 0.0000 1766.2090 -7315.4192 301.4915 -9081.6282 -7374.4317 298.7788 810.4843 917.6715 29934.3534 99.8153 167.8025
ENERGY: 900000 7.6811 13.2428 11.5472 0.0000 -10796.3566 1552.3780 0.0000 0.0000 1754.9780 -7456.5295 299.5743 -9211.5076 -7374.0795 299.6333 705.3332 690.4239 29969.4109 92.3994 150.5499
ENERGY: 1200000 2.2126 12.4603 13.4369 0.0000 -10655.3394 1420.0309 0.0000 0.0000 1798.6344 -7408.5643 307.0265 -9207.1987 -7369.2280 300.1312 -286.7218 -259.0470 30257.4231 23.9569 84.6371
ENERGY: 1500000 3.8118 10.5186 13.7436 0.0000 -10687.5342 1455.4873 0.0000 0.0000 1757.8876 -7446.0852 300.0710 -9203.9728 -7378.9737 300.5164 -150.7776 -63.6584 30024.0803 15.3749 68.8437
TCL: Running FEP window  10: Lambda1 0.5499999999999996 Lambda2 0.4999999999999996 [dLambda -0.04999999999999999]
TCL: Setting parameter firsttimestep to 0
TCL: Setting parameter alchLambda to 0.5499999999999996
Info: NONBONDED TABLE R-SQUARED SPACING: 0.0625
Info: NONBONDED TABLE SIZE: 705 POINTS
TCL: Setting parameter alchLambda2 to 0.4999999999999996
Info: NONBONDED TABLE R-SQUARED SPACING: 0.0625
Info: NONBONDED TABLE SIZE: 705 POINTS
TCL: Running for 1500000 steps
ETITLE: TS BOND ANGLE DIHED IMPRP ELECT VDW BOUNDARY MISC KINETIC TOTAL TEMP POTENTIAL TOTALAVG TEMPAVG PRESSURE GPRESSURE VOLUME PRESSAVG GPRESSAVG
ENERGY: 0 3.8118 10.5186 13.7436 0.0000 -10687.1295 1455.5174 0.0000 0.0000 1757.0005 -7446.5376 299.9196 -9203.5381 -7446.5376 299.9196 -167.1039 -73.8564 30024.0803 -167.1039 -73.8564
ENERGY: 300000 4.0032 11.6797 14.1239 0.0000 -10523.5571 1390.9698 0.0000 0.0000 1749.8356 -7352.9447 298.6965 -9102.7803 -7367.4595 300.2015 -327.3015 -247.8935 30254.9581 -112.8132 -38.0997
ENERGY: 600000 5.0297 17.7426 11.9414 0.0000 -10641.1798 1477.3556 0.0000 0.0000 1810.8457 -7318.2648 309.1109 -9129.1105 -7354.0348 301.2508 496.5070 573.9915 30227.1263 83.8353 149.1799
ENERGY: 900000 2.8895 13.2748 11.3294 0.0000 -10494.4965 1324.9779 0.0000 0.0000 1759.2561 -7382.7688 300.3046 -9142.0249 -7347.6058 301.4803 -866.2979 -805.5622 30225.2670 -63.9313 -7.2784
ENERGY: 1200000 4.7601 11.5308 13.7502 0.0000 -10652.8801 1468.5553 0.0000 0.0000 1751.9170 -7402.3668 299.0518 -9154.2838 -7353.0237 300.4226 282.6201 334.9600 30058.5091 52.5655 114.0741
ENERGY: 1500000 2.6396 12.3066 13.1562 0.0000 -10596.1658 1378.1642 0.0000 0.0000 1738.3883 -7451.5109 296.7425 -9189.8992 -7368.8373 300.0394 -602.7455 -569.0173 29995.8080 -7.5100 48.1844
TCL: Running FEP window  11: Lambda1 0.4999999999999996 Lambda2 0.4499999999999996 [dLambda -0.04999999999999999]
TCL: Setting parameter firsttimestep to 0
TCL: Setting parameter alchLambda to 0.4999999999999996
Info: NONBONDED TABLE R-SQUARED SPACING: 0.0625
Info: NONBONDED TABLE SIZE: 705 POINTS
TCL: Setting parameter alchLambda2 to 0.4499999999999996
Info: NONBONDED TABLE R-SQUARED SPACING: 0.0625
Info: NONBONDED TABLE SIZE: 705 POINTS
TCL: Running for 1500000 steps
ETITLE: TS BOND ANGLE DIHED IMPRP ELECT VDW BOUNDARY MISC KINETIC TOTAL TEMP POTENTIAL TOTALAVG TEMPAVG PRESSURE GPRESSURE VOLUME PRESSAVG GPRESSAVG
ENERGY: 0 2.6396 12.3066 13.1562 0.0000 -10595.7065 1378.9907 0.0000 0.0000 1737.4987 -7451.1147 296.5906 -9188.6134 -7451.1147 296.5906 -653.1814 -571.8538 29995.8080 -653.1814 -571.8538
ENERGY: 300000 3.2019 7.8486 13.8877 0.0000 -10573.8563 1422.3125 0.0000 0.0000 1738.8587 -7387.7469 296.8228 -9126.6056 -7411.4227 297.1294 57.1023 99.3478 29896.0423 -103.9646 -65.7810
ENERGY: 600000 5.6667 12.2692 12.1014 0.0000 -10710.6647 1459.8973 0.0000 0.0000 1711.8832 -7508.8468 292.2180 -9220.7300 -7401.6600 300.1269 -94.7435 -27.0892 30010.5991 -116.2813 -53.6255
ENERGY: 900000 2.8377 10.8187 10.8942 0.0000 -10543.7108 1405.2636 0.0000 0.0000 1730.4354 -7383.4611 295.3849 -9113.8965 -7388.8619 300.2863 -58.3048 40.8760 30015.7903 -159.8065 -100.0431
ENERGY: 1200000 5.0245 16.8899 14.2928 0.0000 -10623.3999 1445.2203 0.0000 0.0000 1801.9307 -7340.0418 307.5891 -9141.9725 -7389.5741 299.5351 61.9069 164.4110 30148.3887 -157.0899 -92.7258
ENERGY: 1500000 1.2074 11.6721 12.8877 0.0000 -10636.4340 1441.6303 0.0000 0.0000 1845.1645 -7323.8721 314.9691 -9169.0365 -7389.7875 299.5971 138.9682 207.4119 30147.7305 -124.4573 -58.2431
TCL: Running FEP window  12: Lambda1 0.4499999999999996 Lambda2 0.39999999999999963 [dLambda -0.04999999999999999]
TCL: Setting parameter firsttimestep to 0
TCL: Setting parameter alchLambda to 0.4499999999999996
Info: NONBONDED TABLE R-SQUARED SPACING: 0.0625
Info: NONBONDED TABLE SIZE: 705 POINTS
TCL: Setting parameter alchLambda2 to 0.39999999999999963
Info: NONBONDED TABLE R-SQUARED SPACING: 0.0625
Info: NONBONDED TABLE SIZE: 705 POINTS
TCL: Running for 1500000 steps
ETITLE: TS BOND ANGLE DIHED IMPRP ELECT VDW BOUNDARY MISC KINETIC TOTAL TEMP POTENTIAL TOTALAVG TEMPAVG PRESSURE GPRESSURE VOLUME PRESSAVG GPRESSAVG
ENERGY: 0 1.2074 11.6721 12.8877 0.0000 -10636.4346 1440.9481 0.0000 0.0000 1844.3120 -7325.4073 314.8236 -9169.7193 -7325.4073 314.8236 105.6032 195.0643 30147.7305 105.6032 195.0643
ENERGY: 300000 6.0939 12.8962 11.5483 0.0000 -10605.3054 1446.0073 0.0000 0.0000 1764.9391 -7363.8205 301.2747 -9128.7596 -7362.8728 304.6516 -140.4951 -57.8107 30282.2386 -241.4018 -164.0940
ENERGY: 600000 4.3220 13.1217 12.9814 0.0000 -10518.7019 1399.7195 0.0000 0.0000 1714.1644 -7374.3927 292.6075 -9088.5572 -7361.7031 301.5530 -199.9008 -160.8973 29992.6907 -290.8742 -216.5409
ENERGY: 900000 1.9210 14.5843 12.3146 0.0000 -10679.7379 1537.9394 0.0000 0.0000 1741.3365 -7371.6421 297.2457 -9112.9786 -7374.7162 300.8818 1224.0819 1257.4436 29640.7789 -80.7262 -21.0577
ENERGY: 1200000 3.1937 14.7692 14.1057 0.0000 -10392.4549 1334.5738 0.0000 0.0000 1792.3884 -7233.4241 305.9603 -9025.8125 -7362.5617 301.0648 -725.0072 -639.4212 30686.5815 -34.7570 27.6801
ENERGY: 1500000 1.4597 15.9858 12.3642 0.0000 -10545.6506 1356.0839 0.0000 0.0000 1785.6241 -7374.1329 304.8056 -9159.7570 -7362.5345 301.3952 -729.2419 -650.3809 30443.3016 -23.7153 34.7381
TCL: Running FEP window  13: Lambda1 0.39999999999999963 Lambda2 0.34999999999999964 [dLambda -0.04999999999999999]
TCL: Setting parameter firsttimestep to 0
TCL: Setting parameter alchLambda to 0.39999999999999963
Info: NONBONDED TABLE R-SQUARED SPACING: 0.0625
Info: NONBONDED TABLE SIZE: 705 POINTS
TCL: Setting parameter alchLambda2 to 0.34999999999999964
Info: NONBONDED TABLE R-SQUARED SPACING: 0.0625
Info: NONBONDED TABLE SIZE: 705 POINTS
TCL: Running for 1500000 steps
ETITLE: TS BOND ANGLE DIHED IMPRP ELECT VDW BOUNDARY MISC KINETIC TOTAL TEMP POTENTIAL TOTALAVG TEMPAVG PRESSURE GPRESSURE VOLUME PRESSAVG GPRESSAVG
ENERGY: 0 1.4598 15.9858 12.3642 0.0000 -10545.6495 1355.6473 0.0000 0.0000 1784.7220 -7375.4705 304.6516 -9160.1925 -7375.4705 304.6516 -758.7207 -658.7925 30443.3016 -758.7207 -658.7925
ENERGY: 300000 2.9525 16.8846 13.3414 0.0000 -10586.9436 1448.9967 0.0000 0.0000 1785.1230 -7319.6455 304.7201 -9104.7685 -7343.4129 305.0003 438.6510 446.2638 30038.3525 31.5418 110.7030
ENERGY: 600000 3.6105 19.0074 11.2034 0.0000 -10688.9970 1533.5013 0.0000 0.0000 1766.2472 -7355.4272 301.4980 -9121.6744 -7344.4904 303.7557 843.3482 933.0014 29971.3917 260.8993 341.5773
ENERGY: 900000 2.3206 10.3112 11.4434 0.0000 -10472.2273 1387.2651 0.0000 0.0000 1718.4952 -7342.3918 293.3467 -9060.8869 -7344.8124 302.1115 -119.1866 -47.4886 30367.0028 192.7116 269.1672
ENERGY: 1200000 5.6969 13.1916 12.3821 0.0000 -10719.6449 1476.2914 0.0000 0.0000 1748.0271 -7464.0559 298.3878 -9212.0829 -7357.7838 301.7739 84.1344 143.1400 29817.0121 91.7142 167.7118
ENERGY: 1500000 6.2225 15.2700 11.7994 0.0000 -10576.6343 1417.6339 0.0000 0.0000 1766.1191 -7359.5894 301.4761 -9125.7085 -7358.9223 301.2166 -208.3883 -126.8189 30390.6564 86.5544 157.7445
TCL: Running FEP window  14: Lambda1 0.34999999999999964 Lambda2 0.29999999999999966 [dLambda -0.04999999999999999]
TCL: Setting parameter firsttimestep to 0
TCL: Setting parameter alchLambda to 0.34999999999999964
Info: NONBONDED TABLE R-SQUARED SPACING: 0.0625
Info: NONBONDED TABLE SIZE: 705 POINTS
TCL: Setting parameter alchLambda2 to 0.29999999999999966
Info: NONBONDED TABLE R-SQUARED SPACING: 0.0625
Info: NONBONDED TABLE SIZE: 705 POINTS
TCL: Running for 1500000 steps
ETITLE: TS BOND ANGLE DIHED IMPRP ELECT VDW BOUNDARY MISC KINETIC TOTAL TEMP POTENTIAL TOTALAVG TEMPAVG PRESSURE GPRESSURE VOLUME PRESSAVG GPRESSAVG
ENERGY: 0 6.2225 15.2700 11.7994 0.0000 -10576.6342 1417.6231 0.0000 0.0000 1765.2635 -7360.4557 301.3301 -9125.7192 -7360.4557 301.3301 -222.3311 -134.4436 30390.6564 -222.3311 -134.4436
ENERGY: 300000 2.8477 11.8789 13.1700 0.0000 -10548.1599 1412.0660 0.0000 0.0000 1786.4219 -7321.7754 304.9418 -9108.1973 -7376.0493 297.2727 -24.7431 -24.3488 30137.3728 -324.1771 -256.3900
ENERGY: 600000 3.0029 12.8246 10.9049 0.0000 -10557.8428 1399.1298 0.0000 0.0000 1767.9402 -7364.0403 301.7870 -9131.9805 -7366.6283 300.2188 -265.1618 -209.1808 30383.1692 -139.0644 -76.2736
ENERGY: 900000 2.9678 8.4939 13.2686 0.0000 -10614.7850 1507.4130 0.0000 0.0000 1802.1393 -7280.5025 307.6247 -9082.6418 -7356.0626 301.0410 862.2514 975.5152 29791.7822 -111.5273 -55.9323
ENERGY: 1200000 2.3067 11.7284 11.8131 0.0000 -10575.0591 1413.4271 0.0000 0.0000 1790.7546 -7345.0291 305.6814 -9135.7838 -7350.9794 301.1804 -184.1361 -197.0252 30481.5402 -109.9525 -57.3289
ENERGY: 1500000 4.2781 10.0786 11.2676 0.0000 -10661.0566 1439.9598 0.0000 0.0000 1769.7283 -7425.7441 302.0922 -9195.4725 -7356.5768 301.1546 -79.0285 -29.4985 30289.0790 -131.2136 -76.5221
TCL: Running FEP window  15: Lambda1 0.29999999999999966 Lambda2 0.24999999999999967 [dLambda -0.04999999999999999]
TCL: Setting parameter firsttimestep to 0
TCL: Setting parameter alchLambda to 0.29999999999999966
Info: NONBONDED TABLE R-SQUARED SPACING: 0.0625
Info: NONBONDED TABLE SIZE: 705 POINTS
TCL: Setting parameter alchLambda2 to 0.24999999999999967
Info: NONBONDED TABLE R-SQUARED SPACING: 0.0625
Info: NONBONDED TABLE SIZE: 705 POINTS
TCL: Running for 1500000 steps
ETITLE: TS BOND ANGLE DIHED IMPRP ELECT VDW BOUNDARY MISC KINETIC TOTAL TEMP POTENTIAL TOTALAVG TEMPAVG PRESSURE GPRESSURE VOLUME PRESSAVG GPRESSAVG
ENERGY: 0 4.2781 10.0786 11.2676 0.0000 -10661.0566 1440.1004 0.0000 0.0000 1768.8545 -7426.4773 301.9430 -9195.3318 -7426.4773 301.9430 -122.1908 -35.5743 30289.0790 -122.1908 -35.5743
ENERGY: 300000 5.2438 14.0874 13.3757 0.0000 -10711.6032 1481.2943 0.0000 0.0000 1755.9696 -7441.6324 299.7436 -9197.6020 -7411.5560 298.8501 129.6690 121.8181 30159.9021 -26.4427 13.8569
ENERGY: 600000 5.5723 10.1166 12.2193 0.0000 -10578.1056 1458.5065 0.0000 0.0000 1764.4286 -7327.2625 301.1875 -9091.6911 -7384.5367 298.5871 242.9691 307.3496 29933.0765 202.8303 271.3730
ENERGY: 900000 5.6296 14.5698 13.0866 0.0000 -10629.8673 1434.9071 0.0000 0.0000 1742.6541 -7419.0201 297.4706 -9161.6742 -7356.7696 300.4255 -456.6328 -406.1528 30480.6540 67.9846 137.5247
ENERGY: 1200000 9.2277 19.7245 13.0779 0.0000 -10565.2656 1403.6933 0.0000 0.0000 1717.7605 -7401.7817 293.2213 -9119.5422 -7367.4806 300.2880 -263.6986 -236.0195 30095.4414 62.1090 121.4278
ENERGY: 1500000 6.0377 13.7679 11.1445 0.0000 -10703.4999 1495.1299 0.0000 0.0000 1789.9320 -7387.4879 305.5410 -9177.4199 -7363.2044 300.5438 462.7333 523.6521 30013.7226 87.4949 154.6582
TCL: Running FEP window  16: Lambda1 0.24999999999999967 Lambda2 0.19999999999999968 [dLambda -0.04999999999999999]
TCL: Setting parameter firsttimestep to 0
TCL: Setting parameter alchLambda to 0.24999999999999967
Info: NONBONDED TABLE R-SQUARED SPACING: 0.0625
Info: NONBONDED TABLE SIZE: 705 POINTS
TCL: Setting parameter alchLambda2 to 0.19999999999999968
Info: NONBONDED TABLE R-SQUARED SPACING: 0.0625
Info: NONBONDED TABLE SIZE: 705 POINTS
TCL: Running for 1500000 steps
ETITLE: TS BOND ANGLE DIHED IMPRP ELECT VDW BOUNDARY MISC KINETIC TOTAL TEMP POTENTIAL TOTALAVG TEMPAVG PRESSURE GPRESSURE VOLUME PRESSAVG GPRESSAVG
ENERGY: 0 6.0377 13.7679 11.1445 0.0000 -10703.4998 1495.5486 0.0000 0.0000 1789.0831 -7387.9180 305.3961 -9177.0011 -7387.9180 305.3961 447.8116 521.9977 30013.7226 447.8116 521.9977
ENERGY: 300000 6.8893 20.3293 12.4796 0.0000 -10609.0329 1490.6838 0.0000 0.0000 1756.2829 -7322.3680 299.7971 -9078.6509 -7369.8152 300.3657 620.0243 677.5688 29879.1365 410.8265 476.2530
ENERGY: 600000 5.2562 12.0787 11.6422 0.0000 -10533.3273 1427.4596 0.0000 0.0000 1766.2858 -7310.6047 301.5046 -9076.8905 -7341.2012 300.5580 201.0173 257.5217 30240.3974 266.0046 323.0165
ENERGY: 900000 2.0201 10.8604 13.2923 0.0000 -10714.0031 1492.5206 0.0000 0.0000 1777.9240 -7417.3857 303.4912 -9195.3097 -7350.5280 301.1429 638.2000 689.6111 29509.6833 219.4143 278.2539
ENERGY: 1200000 2.5763 9.8683 15.6197 0.0000 -10455.2197 1333.5002 0.0000 0.0000 1793.1738 -7300.4813 306.0943 -9093.6551 -7342.4428 301.4507 -659.8235 -618.5159 30306.7742 77.8623 131.6646
ENERGY: 1500000 1.6342 17.0546 13.8568 0.0000 -10695.9273 1452.1659 0.0000 0.0000 1784.3150 -7426.9007 304.5821 -9211.2157 -7345.8939 301.5298 -70.4620 -57.2049 30042.4384 97.2733 152.7316
TCL: Running FEP window  17: Lambda1 0.19999999999999968 Lambda2 0.1499999999999997 [dLambda -0.04999999999999999]
TCL: Setting parameter firsttimestep to 0
TCL: Setting parameter alchLambda to 0.19999999999999968
Info: NONBONDED TABLE R-SQUARED SPACING: 0.0625
Info: NONBONDED TABLE SIZE: 705 POINTS
TCL: Setting parameter alchLambda2 to 0.1499999999999997
Info: NONBONDED TABLE R-SQUARED SPACING: 0.0625
Info: NONBONDED TABLE SIZE: 705 POINTS
TCL: Running for 1500000 steps
ETITLE: TS BOND ANGLE DIHED IMPRP ELECT VDW BOUNDARY MISC KINETIC TOTAL TEMP POTENTIAL TOTALAVG TEMPAVG PRESSURE GPRESSURE VOLUME PRESSAVG GPRESSAVG
ENERGY: 0 1.6342 17.0546 13.8568 0.0000 -10695.9268 1452.1651 0.0000 0.0000 1783.4583 -7427.7576 304.4359 -9211.2160 -7427.7576 304.4359 -156.8966 -61.7346 30042.4384 -156.8966 -61.7346
ENERGY: 300000 2.7547 17.1850 12.2120 0.0000 -10565.3861 1399.7286 0.0000 0.0000 1797.4804 -7336.0254 306.8295 -9133.5058 -7372.5639 301.0839 -243.2143 -201.5368 30150.6449 -151.7776 -79.3043
ENERGY: 600000 3.5761 13.8754 13.3329 0.0000 -10655.3795 1425.1657 0.0000 0.0000 1770.9210 -7428.5083 302.2958 -9199.4293 -7366.4003 300.4164 -297.5577 -230.0798 29675.4108 -169.5885 -96.5729
ENERGY: 900000 2.7861 12.5790 12.7565 0.0000 -10564.4570 1410.0818 0.0000 0.0000 1765.3041 -7360.9496 301.3370 -9126.2537 -7355.5346 300.1995 -183.1913 -107.7779 30054.1134 -165.0767 -98.3285
ENERGY: 1200000 3.6372 11.6295 10.3853 0.0000 -10604.7294 1453.1495 0.0000 0.0000 1764.9309 -7360.9970 301.2733 -9125.9279 -7358.5822 300.4438 232.4458 320.6278 29981.7694 -214.6726 -145.9305
ENERGY: 1500000 2.3986 10.6472 16.7770 0.0000 -10524.7949 1411.1940 0.0000 0.0000 1799.8427 -7283.9354 307.2327 -9083.7781 -7354.9935 301.0936 -8.4250 0.6777 30376.2766 -136.5879 -69.0570
TCL: Running FEP window  18: Lambda1 0.1499999999999997 Lambda2 0.09999999999999969 [dLambda -0.05 ]
TCL: Setting parameter firsttimestep to 0
TCL: Setting parameter alchLambda to 0.1499999999999997
Info: NONBONDED TABLE R-SQUARED SPACING: 0.0625
Info: NONBONDED TABLE SIZE: 705 POINTS
TCL: Setting parameter alchLambda2 to 0.09999999999999969
Info: NONBONDED TABLE R-SQUARED SPACING: 0.0625
Info: NONBONDED TABLE SIZE: 705 POINTS
TCL: Running for 1500000 steps
ETITLE: TS BOND ANGLE DIHED IMPRP ELECT VDW BOUNDARY MISC KINETIC TOTAL TEMP POTENTIAL TOTALAVG TEMPAVG PRESSURE GPRESSURE VOLUME PRESSAVG GPRESSAVG
ENERGY: 0 2.3986 10.6472 16.7770 0.0000 -10524.7951 1411.7572 0.0000 0.0000 1799.0064 -7284.2088 307.0900 -9083.2152 -7284.2088 307.0900 -80.8606 0.2541 30376.2766 -80.8606 0.2541
ENERGY: 300000 4.3884 19.2026 14.8869 0.0000 -10594.8630 1407.6967 0.0000 0.0000 1858.3792 -7290.3093 317.2249 -9148.6885 -7338.1488 305.2786 -21.8442 29.7575 29951.8389 -264.6300 -194.2992
ENERGY: 600000 5.9414 10.3870 10.8601 0.0000 -10623.8031 1442.4902 0.0000 0.0000 1772.8555 -7381.2688 302.6260 -9154.1243 -7366.9602 302.6183 -101.6557 -45.2355 30012.5951 -173.5083 -109.0524
ENERGY: 900000 4.8554 7.0333 12.7055 0.0000 -10559.2570 1408.8644 0.0000 0.0000 1754.9172 -7370.8811 299.5640 -9125.7984 -7371.5481 301.4686 -249.3732 -212.5359 30136.4926 -190.5525 -133.6922
ENERGY: 1200000 3.6638 12.0470 10.2902 0.0000 -10547.9220 1420.3015 0.0000 0.0000 1763.4255 -7338.1941 301.0163 -9101.6196 -7369.7002 301.2012 129.3468 131.5081 29849.7909 -188.9727 -129.7670
ENERGY: 1500000 1.1458 12.8099 16.5347 0.0000 -10686.3684 1504.2824 0.0000 0.0000 1731.3069 -7420.2887 295.5337 -9151.5956 -7372.6335 300.1303 530.6914 637.8416 29767.1471 -146.7297 -87.9447
TCL: Running FEP window  19: Lambda1 0.09999999999999969 Lambda2 0.049999999999999684 [dLambda -0.05 ]
TCL: Setting parameter firsttimestep to 0
TCL: Setting parameter alchLambda to 0.09999999999999969
Info: NONBONDED TABLE R-SQUARED SPACING: 0.0625
Info: NONBONDED TABLE SIZE: 705 POINTS
TCL: Setting parameter alchLambda2 to 0.049999999999999684
Info: NONBONDED TABLE R-SQUARED SPACING: 0.0625
Info: NONBONDED TABLE SIZE: 705 POINTS
TCL: Running for 1500000 steps
ETITLE: TS BOND ANGLE DIHED IMPRP ELECT VDW BOUNDARY MISC KINETIC TOTAL TEMP POTENTIAL TOTALAVG TEMPAVG PRESSURE GPRESSURE VOLUME PRESSAVG GPRESSAVG
ENERGY: 0 1.1458 12.8099 16.5347 0.0000 -10686.3686 1501.9260 0.0000 0.0000 1730.4362 -7423.5160 295.3850 -9153.9522 -7423.5160 295.3850 557.1072 628.8158 29767.1471 557.1072 628.8158
ENERGY: 300000 3.6640 12.8165 11.6697 0.0000 -10597.5903 1494.0948 0.0000 0.0000 1720.7050 -7354.6402 293.7239 -9075.3452 -7396.1384 294.3944 293.0788 393.5811 30624.6264 63.6595 125.9643
ENERGY: 600000 5.6800 10.8842 13.5374 0.0000 -10567.7127 1465.9885 0.0000 0.0000 1785.4584 -7286.1642 304.7773 -9071.6226 -7377.4648 297.1821 -1.2450 -2.4650 30844.0860 64.5816 125.4251
ENERGY: 900000 5.4041 15.8333 11.6151 0.0000 -10573.4170 1466.5518 0.0000 0.0000 1760.8845 -7313.1283 300.5826 -9074.0127 -7370.6445 297.3971 310.7782 452.7766 30127.5920 86.3928 153.6753
ENERGY: 1200000 2.0116 15.9455 11.8626 0.0000 -10497.0227 1410.4642 0.0000 0.0000 1739.3741 -7317.3648 296.9107 -9056.7388 -7362.2397 298.1258 -64.9132 22.4775 30314.0314 17.5733 82.0264
ENERGY: 1500000 1.8926 11.8470 10.9483 0.0000 -10606.0423 1411.1602 0.0000 0.0000 1802.2179 -7367.9763 307.6382 -9170.1942 -7365.4420 299.6824 -409.5870 -332.0180 30103.6287 11.3175 81.0956
TCL: Running FEP window  20: Lambda1 0.049999999999999684 Lambda2 0.0    [dLambda -0.049999999999999684]
TCL: Setting parameter firsttimestep to 0
TCL: Setting parameter alchLambda to 0.049999999999999684
Info: NONBONDED TABLE R-SQUARED SPACING: 0.0625
Info: NONBONDED TABLE SIZE: 705 POINTS
TCL: Setting parameter alchLambda2 to 0.0
Info: NONBONDED TABLE R-SQUARED SPACING: 0.0625
Info: NONBONDED TABLE SIZE: 705 POINTS
TCL: Running for 1500000 steps
ETITLE: TS BOND ANGLE DIHED IMPRP ELECT VDW BOUNDARY MISC KINETIC TOTAL TEMP POTENTIAL TOTALAVG TEMPAVG PRESSURE GPRESSURE VOLUME PRESSAVG GPRESSAVG
ENERGY: 0 1.8926 11.8470 10.9483 0.0000 -10606.0416 1409.8737 0.0000 0.0000 1801.3435 -7370.1366 307.4889 -9171.4800 -7370.1366 307.4889 -432.5192 -335.5852 30103.6287 -432.5192 -335.5852
ENERGY: 300000 1.9910 10.2340 12.6481 0.0000 -10520.6698 1420.6420 0.0000 0.0000 1693.0028 -7382.1520 288.9952 -9075.1548 -7387.3361 297.3198 38.0287 92.6737 29953.7290 -481.9683 -406.9728
ENERGY: 600000 1.6017 13.7534 10.2370 0.0000 -10616.0474 1392.1872 0.0000 0.0000 1752.3359 -7445.9322 299.1233 -9198.2681 -7367.9367 299.5644 -507.9809 -388.1845 29838.5944 -256.6122 -179.0434
ENERGY: 900000 4.6608 13.7875 11.6368 0.0000 -10746.5867 1533.7218 0.0000 0.0000 1798.0209 -7384.7591 306.9217 -9182.7800 -7366.8540 300.9279 632.1961 637.3122 30158.1160 -75.6274 -5.0603
ENERGY: 1200000 2.3200 14.7514 12.7311 0.0000 -10645.0473 1494.9877 0.0000 0.0000 1777.2264 -7343.0306 303.3721 -9120.2571 -7366.2352 301.6110 700.2843 727.8693 29556.6212 -44.6305 29.0822
ENERGY: 1500000 3.8217 15.0019 11.9597 0.0000 -10555.0015 1400.3953 0.0000 0.0000 1737.4751 -7386.3477 296.5866 -9123.8228 -7368.0092 300.7273 -534.5797 -494.4817 30522.1710 -103.0122 -33.1349
TCL: Exiting due to exit command.
