Info: SIMULATION PARAMETERS:
Info: TIMESTEP               2
Info: NUMBER OF STEPS        0
Info: STEPS PER CYCLE        10
Info: PERIODIC CELL BASIS 1  29.1289 0 0
Info: PERIODIC CELL BASIS 2  0 34.7399 0
Info: PERIODIC CELL BASIS 3  0 0 30.255
Info: PERIODIC CELL CENTER   0 0 0
Info: WRAPPING WATERS AROUND PERIODIC BOUNDARIES ON OUTPUT.
Info: WRAPPING ALL CLUSTERS AROUND PERIODIC BOUNDARIES ON OUTPUT.
Info: FIRST LDB TIMESTEP     50
Info: LAST LDB TIMESTEP     -1
Info: HOM BACKGROUND SCALING 1
Info: PME BACKGROUND SCALING 1
Info: MIN ATOMS PER PATCH    40
Info: EMPTY PATCH LOAD       40 ATOMS
Info: VELOCITY FILE          mobley_4694328_equil.vel
Info: CENTER OF MASS MOVING INITIALLY? NO
Info: DIELECTRIC             1
Info: EXCLUDE                SCALED ONE-FOUR
Info: 1-4 ELECTROSTATICS SCALED BY 0.833333
Info: MODIFIED 1-4 VDW PARAMETERS WILL BE USED
Info: DCD FILENAME           mobley_4694328_prod.dcd
Info: DCD FREQUENCY          100000
Info: DCD FIRST STEP         100000
Info: DCD FILE WILL CONTAIN UNIT CELL DATA
Info: XST FILENAME           mobley_4694328_prod.xst
Info: XST FREQUENCY          100000
Info: NO VELOCITY DCD OUTPUT
Info: NO FORCE DCD OUTPUT
Info: OUTPUT FILENAME        mobley_4694328_prod
Info: BINARY OUTPUT FILES WILL BE USED
Info: RESTART FILENAME       mobley_4694328_prod.restart
Info: RESTART FREQUENCY      100000
Info: BINARY RESTART FILES WILL BE USED
Info: CUTOFF                 9
Info: PAIRLIST DISTANCE      11
Info: PAIRLIST SHRINK RATE   0.01
Info: PAIRLIST GROW RATE     0.01
Info: PAIRLIST TRIGGER       0.3
Info: PAIRLISTS PER CYCLE    2
Info: PAIRLISTS ENABLED
Info: MARGIN                 2
Info: HYDROGEN GROUP CUTOFF  2.5
Info: PATCH DIMENSION        15.5
Info: ENERGY OUTPUT STEPS    100000
Info: ENERGY EVALUATION STEPS    100000
Info: OUTPUT ENERGY PRECISION 4
Info: CROSSTERM ENERGY INCLUDED IN DIHEDRAL
Info: TIMING OUTPUT STEPS    1000000
Info: PRESSURE OUTPUT STEPS  100000
Info: ALCHEMICAL FEP ON
Info: FEP CURRENT LAMBDA VALUE     1
Info: FEP COMPARISON LAMBDA VALUE  0.95
Info: FEP INTRA-ALCHEMICAL NON-BONDED INTERACTIONS WILL BE RETAINED
Info: FEP INTRA-ALCHEMICAL BONDED INTERACTIONS WILL BE RETAINED
Info: FEP VDW SHIFTING COEFFICIENT 5
Info: FEP ELEC. ACTIVE FOR ANNIHILATED PARTICLES BETWEEN LAMBDA = 0 AND LAMBDA = 0.5
Info: FEP ELEC. ACTIVE FOR EXNIHILATED PARTICLES BETWEEN LAMBDA = 0.5 AND LAMBDA = 1
Info: FEP VDW ACTIVE FOR ANNIHILATED PARTICLES BETWEEN LAMBDA = 0 AND LAMBDA = 1
Info: FEP VDW ACTIVE FOR EXNIHILATED PARTICLES BETWEEN LAMBDA = 0 AND LAMBDA = 1
Info: FEP BOND ACTIVE FOR ANNIHILATED PARTICLES BETWEEN LAMBDA = 1 AND LAMBDA = 1
Info: FEP BOND ACTIVE FOR EXNIHILATED PARTICLES BETWEEN LAMBDA = 0 AND LAMBDA = 0
Info: LANGEVIN DYNAMICS ACTIVE
Info: LANGEVIN TEMPERATURE   300
Info: LANGEVIN USING BBK INTEGRATOR
Info: LANGEVIN DAMPING COEFFICIENT IS 1 INVERSE PS
Info: LANGEVIN DYNAMICS APPLIED TO HYDROGENS
Info: LANGEVIN PISTON PRESSURE CONTROL ACTIVE
Info:        TARGET PRESSURE IS 1.01325 BAR
Info:     OSCILLATION PERIOD IS 50 FS
Info:             DECAY TIME IS 25 FS
Info:     PISTON TEMPERATURE IS 300 K
Info:       PRESSURE CONTROL IS GROUP-BASED
Info:    INITIAL STRAIN RATE IS 0.000192584 0.000192584 0.000192584
Info:       CELL FLUCTUATION IS ISOTROPIC
Info: PARTICLE MESH EWALD (PME) ACTIVE
Info: PME TOLERANCE               1e-06
Info: PME EWALD COEFFICIENT       0.348832
Info: PME INTERPOLATION ORDER     4
Info: PME GRID DIMENSIONS         32 36 32
Info: PME MAXIMUM GRID SPACING    1
Info: PME CALCULATION WILL BE PERFORMED ON GPU
Info: FULL ELECTROSTATIC EVALUATION FREQUENCY      2
Info: USING VERLET I (r-RESPA) MTS SCHEME.
Info: C1 SPLITTING OF LONG RANGE ELECTROSTATICS
Info: PLACING ATOMS IN PATCHES BY HYDROGEN GROUPS
Info: RIGID BONDS TO HYDROGEN : ALL
Info:         ERROR TOLERANCE : 1e-08
Info:          MAX ITERATIONS : 100
Info: RIGID WATER USING SETTLE ALGORITHM
Info: RANDOM NUMBER SEED     1744059425
Info: USE HYDROGEN BONDS?    NO
Info: Using AMBER format force field!
Info: AMBER PARM FILE        mobley_4694328.prmtop
Info: COORDINATE PDB         mobley_4694328.pdb
Info: Exclusions will be read from PARM file!
Info: SCNB (VDW SCALING)     2
Info: USING ARITHMETIC MEAN TO COMBINE L-J SIGMA PARAMETERS
Info: BINARY COORDINATES     mobley_4694328_equil.coor
Info: SUMMARY OF PARAMETERS:
Info: 7 BONDS
Info: 8 ANGLES
Info:   8 HARMONIC
Info:   0 COSINE-BASED
Info: 11 DIHEDRAL
Info: 0 IMPROPER
Info: 0 CROSSTERM
Info: 0 VDW
Info: 28 VDW_PAIRS
Info: 0 NBTHOLE_PAIRS
Info: To read alchdata from file: mobley_4694328.pdb
Info: To read alchflag data from column: 5
Info: STRUCTURE SUMMARY:
Info: 2962 ATOMS
Info: 2961 BONDS
Info: 45 ANGLES
Info: 73 DIHEDRALS
Info: 0 IMPROPERS
Info: 0 CROSSTERMS
Info: 3066 EXCLUSIONS
Info: 2953 RIGID BONDS
Info: ALCH: 0 ATOMS TO DISAPPEAR IN FINAL STATE
Info: ALCH: 25 ATOMS TO APPEAR IN FINAL STATE
Info: 5933 DEGREES OF FREEDOM
Info: 988 HYDROGEN GROUPS
Info: 4 ATOMS IN LARGEST HYDROGEN GROUP
Info: 988 MIGRATION GROUPS
Info: 4 ATOMS IN LARGEST MIGRATION GROUP
Info: TOTAL MASS = 17765.9 amu
Info: TOTAL CHARGE = -0.000100016 e
Info: MASS DENSITY = 0.963594 g/cm^3
Info: ATOM DENSITY = 0.0967461 atoms/A^3
Info: ADDED 0 IMPLICIT EXCLUSIONS
Info: NONBONDED TABLE R-SQUARED SPACING: 0.0625
Info: NONBONDED TABLE SIZE: 705 POINTS
Info: REMOVING COM VELOCITY -0.177589 0.0844265 0.052192
Info: Use 3D box decompostion in PME FFT.
Info: Updated CUDA force table with 4096 elements.
Info: Updated CUDA LJ table with 7 x 7 elements.
Info: Found 28 unique exclusion lists needing 100 bytes
TCL: Running for 1500000 steps
ETITLE: TS BOND ANGLE DIHED IMPRP ELECT VDW BOUNDARY MISC KINETIC TOTAL TEMP POTENTIAL TOTALAVG TEMPAVG PRESSURE GPRESSURE VOLUME PRESSAVG GPRESSAVG
ENERGY: 0 2.4855 9.5857 4.2824 0.0000 -10701.7324 1385.2645 0.0000 0.0000 1755.3391 -7544.7753 297.7673 -9300.1144 -7544.7753 297.7673 -687.3358 -605.1464 30616.2197 -687.3358 -605.1464
ENERGY: 300000 3.2507 12.2205 4.0935 0.0000 -10729.9090 1445.0169 0.0000 0.0000 1715.2826 -7550.0448 290.9723 -9265.3274 -7548.9296 296.6697 -41.2363 -44.6708 30512.1030 -184.2304 -143.8375
ENERGY: 600000 4.4798 8.9114 6.8717 0.0000 -10826.5268 1512.8397 0.0000 0.0000 1765.5185 -7527.9057 299.4941 -9293.4242 -7532.4632 295.6105 497.1822 581.5101 30153.8403 -210.9728 -160.0089
ENERGY: 900000 1.7705 15.6248 6.6040 0.0000 -10608.3774 1454.7676 0.0000 0.0000 1822.2478 -7307.3628 309.1174 -9129.6106 -7501.4786 297.9823 314.7565 413.1116 30684.4950 -85.1079 -37.0651
ENERGY: 1200000 3.9432 10.3033 5.0816 0.0000 -10551.1588 1348.4288 0.0000 0.0000 1729.5619 -7453.8401 293.3946 -9183.4020 -7498.4635 298.4147 -635.6172 -532.4788 30794.7679 -123.2642 -67.3871
ENERGY: 1500000 1.2117 13.4773 5.6544 0.0000 -10654.9604 1412.3779 0.0000 0.0000 1780.5709 -7441.6682 302.0475 -9222.2391 -7480.9015 299.4459 -97.5376 -58.7910 30490.2696 -105.3420 -47.4432
TCL: Running FEP window   2: Lambda1 0.95   Lambda2 0.8999999999999999 [dLambda -0.050000000000000044]
TCL: Setting parameter firsttimestep to 0
TCL: Setting parameter alchLambda to 0.95
Info: NONBONDED TABLE R-SQUARED SPACING: 0.0625
Info: NONBONDED TABLE SIZE: 705 POINTS
TCL: Setting parameter alchLambda2 to 0.8999999999999999
Info: NONBONDED TABLE R-SQUARED SPACING: 0.0625
Info: NONBONDED TABLE SIZE: 705 POINTS
TCL: Running for 1500000 steps
ETITLE: TS BOND ANGLE DIHED IMPRP ELECT VDW BOUNDARY MISC KINETIC TOTAL TEMP POTENTIAL TOTALAVG TEMPAVG PRESSURE GPRESSURE VOLUME PRESSAVG GPRESSAVG
ENERGY: 0 1.2117 13.4773 5.6544 0.0000 -10653.6200 1412.4704 0.0000 0.0000 1779.7015 -7441.1047 301.9001 -9220.8062 -7441.1047 301.9001 -144.1886 -70.8038 30490.2696 -144.1886 -70.8038
ENERGY: 300000 2.1589 12.2823 3.4394 0.0000 -10845.7359 1547.3667 0.0000 0.0000 1729.8264 -7550.6622 293.4395 -9280.4886 -7505.3948 296.3058 862.6690 948.0582 30285.0573 238.4220 325.7168
ENERGY: 600000 3.4897 8.7685 5.4882 0.0000 -10705.9749 1455.8206 0.0000 0.0000 1801.9203 -7430.4876 305.6692 -9232.4079 -7480.3422 298.9465 155.3104 237.1816 30626.3258 292.3294 386.1088
ENERGY: 900000 1.9693 10.5707 5.3847 0.0000 -10615.7917 1390.5235 0.0000 0.0000 1798.2216 -7409.1219 305.0417 -9207.3435 -7469.7477 300.4189 -309.7798 -216.6426 30716.3927 173.8104 256.5549
ENERGY: 1200000 5.1699 8.8979 4.8256 0.0000 -10639.7094 1438.8964 0.0000 0.0000 1736.8945 -7445.0252 294.6385 -9181.9197 -7470.3729 299.6141 9.0653 66.6169 30895.1055 104.6794 187.0108
ENERGY: 1500000 3.2540 10.5125 4.0200 0.0000 -10648.3026 1423.9924 0.0000 0.0000 1771.9340 -7434.5897 300.5824 -9206.5237 -7469.4087 299.4306 104.4443 186.0687 30378.6680 35.4229 114.9982
TCL: Running FEP window   3: Lambda1 0.8999999999999999 Lambda2 0.8499999999999999 [dLambda -0.050000000000000044]
TCL: Setting parameter firsttimestep to 0
TCL: Setting parameter alchLambda to 0.8999999999999999
Info: NONBONDED TABLE R-SQUARED SPACING: 0.0625
Info: NONBONDED TABLE SIZE: 705 POINTS
TCL: Setting parameter alchLambda2 to 0.8499999999999999
Info: NONBONDED TABLE R-SQUARED SPACING: 0.0625
Info: NONBONDED TABLE SIZE: 705 POINTS
TCL: Running for 1500000 steps
ETITLE: TS BOND ANGLE DIHED IMPRP ELECT VDW BOUNDARY MISC KINETIC TOTAL TEMP POTENTIAL TOTALAVG TEMPAVG PRESSURE GPRESSURE VOLUME PRESSAVG GPRESSAVG
ENERGY: 0 3.2540 10.5125 4.0200 0.0000 -10646.6031 1422.3996 0.0000 0.0000 1771.0572 -7435.3597 300.4337 -9206.4169 -7435.3597 300.4337 64.0372 151.3701 30378.6680 64.0372 151.3701
ENERGY: 300000 0.6502 13.2253 4.7223 0.0000 -10690.6929 1416.2908 0.0000 0.0000 1751.1194 -7504.6849 297.0515 -9255.8042 -7452.4362 297.7577 -136.6491 -67.3849 30533.4135 -284.6145 -219.0797
ENERGY: 600000 2.5246 7.3298 6.7763 0.0000 -10783.0275 1503.0863 0.0000 0.0000 1744.1054 -7519.2052 295.8617 -9263.3107 -7487.3943 295.0327 379.7865 491.4384 30377.7572 8.0468 78.8136
ENERGY: 900000 3.4311 8.9232 4.7915 0.0000 -10711.5959 1420.0604 0.0000 0.0000 1759.6582 -7514.7315 298.5000 -9274.3897 -7480.1670 296.2078 -139.6372 -76.6212 30071.0507 55.0798 131.5283
ENERGY: 1200000 0.7039 11.6421 7.3468 0.0000 -10612.9542 1391.2742 0.0000 0.0000 1704.8451 -7497.1420 289.2018 -9201.9871 -7479.0427 296.0957 -390.1581 -301.8278 30731.9281 -40.4307 35.1211
ENERGY: 1500000 2.3523 8.1342 5.2771 0.0000 -10671.0215 1394.1188 0.0000 0.0000 1770.5044 -7490.6348 300.3399 -9261.1391 -7470.7820 297.2863 -249.2826 -217.1396 30276.8023 -13.3294 54.4552
TCL: Running FEP window   4: Lambda1 0.8499999999999999 Lambda2 0.7999999999999998 [dLambda -0.050000000000000044]
TCL: Setting parameter firsttimestep to 0
TCL: Setting parameter alchLambda to 0.8499999999999999
Info: NONBONDED TABLE R-SQUARED SPACING: 0.0625
Info: NONBONDED TABLE SIZE: 705 POINTS
TCL: Setting parameter alchLambda2 to 0.7999999999999998
Info: NONBONDED TABLE R-SQUARED SPACING: 0.0625
Info: NONBONDED TABLE SIZE: 705 POINTS
TCL: Running for 1500000 steps
ETITLE: TS BOND ANGLE DIHED IMPRP ELECT VDW BOUNDARY MISC KINETIC TOTAL TEMP POTENTIAL TOTALAVG TEMPAVG PRESSURE GPRESSURE VOLUME PRESSAVG GPRESSAVG
ENERGY: 0 2.3523 8.1342 5.2771 0.0000 -10669.6964 1393.8135 0.0000 0.0000 1769.6192 -7490.5001 300.1897 -9260.1193 -7490.5001 300.1897 -303.2190 -231.7966 30276.8023 -303.2190 -231.7966
ENERGY: 300000 2.2294 10.4256 4.4130 0.0000 -10593.7700 1351.6654 0.0000 0.0000 1855.3631 -7369.6735 314.7349 -9225.0366 -7436.1450 308.4769 -488.9779 -445.5990 30306.0355 -55.8130 -12.9281
ENERGY: 600000 4.0937 8.4435 6.0668 0.0000 -10756.0359 1476.5451 0.0000 0.0000 1767.6176 -7493.2693 299.8502 -9260.8869 -7460.1186 304.9938 68.7354 137.2516 30310.8138 -139.6209 -78.4348
ENERGY: 900000 2.3584 14.4114 4.6074 0.0000 -10668.5320 1426.5226 0.0000 0.0000 1780.1150 -7440.5170 301.9702 -9220.6321 -7461.4634 304.3693 -0.6356 100.4465 30633.6790 -21.2258 48.0495
ENERGY: 1200000 2.4662 10.3629 4.8476 0.0000 -10707.4162 1375.9783 0.0000 0.0000 1779.9293 -7533.8318 301.9387 -9313.7612 -7464.5524 303.9538 -410.8333 -373.2677 30108.6829 27.4903 92.2929
ENERGY: 1500000 1.2614 9.4026 5.8275 0.0000 -10671.4518 1358.2932 0.0000 0.0000 1718.4079 -7578.2592 291.5025 -9296.6671 -7469.8387 303.0557 -697.6019 -609.9150 30486.8788 36.3985 98.8684
TCL: Running FEP window   5: Lambda1 0.7999999999999998 Lambda2 0.7499999999999998 [dLambda -0.050000000000000044]
TCL: Setting parameter firsttimestep to 0
TCL: Setting parameter alchLambda to 0.7999999999999998
Info: NONBONDED TABLE R-SQUARED SPACING: 0.0625
Info: NONBONDED TABLE SIZE: 705 POINTS
TCL: Setting parameter alchLambda2 to 0.7499999999999998
Info: NONBONDED TABLE R-SQUARED SPACING: 0.0625
Info: NONBONDED TABLE SIZE: 705 POINTS
TCL: Running for 1500000 steps
ETITLE: TS BOND ANGLE DIHED IMPRP ELECT VDW BOUNDARY MISC KINETIC TOTAL TEMP POTENTIAL TOTALAVG TEMPAVG PRESSURE GPRESSURE VOLUME PRESSAVG GPRESSAVG
ENERGY: 0 1.2614 9.4026 5.8275 0.0000 -10670.4216 1357.9173 0.0000 0.0000 1717.5856 -7578.4272 291.3630 -9296.0128 -7578.4272 291.3630 -715.1391 -630.2500 30486.8788 -715.1391 -630.2500
ENERGY: 300000 0.7787 13.0797 3.5836 0.0000 -10691.7051 1414.0100 0.0000 0.0000 1782.2170 -7478.0361 302.3268 -9260.2531 -7480.2155 297.5670 -556.4704 -398.1863 30914.0587 -78.6726 15.7661
ENERGY: 600000 4.6462 8.5328 5.4164 0.0000 -10673.3556 1414.0663 0.0000 0.0000 1743.4596 -7497.2343 295.7522 -9240.6938 -7477.5748 298.3119 -129.2035 -71.9503 30124.1102 -81.2399 9.0874
ENERGY: 900000 1.9883 11.7734 5.6487 0.0000 -10747.5880 1473.5050 0.0000 0.0000 1805.2818 -7449.3908 306.2394 -9254.6726 -7463.7599 299.2897 278.0747 303.1092 30395.3111 -82.0388 3.4441
ENERGY: 1200000 3.8101 11.0284 6.8572 0.0000 -10682.3500 1438.3896 0.0000 0.0000 1732.0530 -7490.2117 293.8172 -9222.2646 -7469.6502 298.2756 167.0672 234.8611 30092.8902 -24.1463 70.3042
ENERGY: 1500000 0.8462 10.3497 6.2731 0.0000 -10823.0118 1516.4607 0.0000 0.0000 1801.6147 -7487.4674 305.6173 -9289.0821 -7469.0428 299.1606 484.7391 540.4333 30488.8057 71.7750 162.8881
TCL: Running FEP window   6: Lambda1 0.7499999999999998 Lambda2 0.6999999999999997 [dLambda -0.050000000000000044]
TCL: Setting parameter firsttimestep to 0
TCL: Setting parameter alchLambda to 0.7499999999999998
Info: NONBONDED TABLE R-SQUARED SPACING: 0.0625
Info: NONBONDED TABLE SIZE: 705 POINTS
TCL: Setting parameter alchLambda2 to 0.6999999999999997
Info: NONBONDED TABLE R-SQUARED SPACING: 0.0625
Info: NONBONDED TABLE SIZE: 705 POINTS
TCL: Running for 1500000 steps
ETITLE: TS BOND ANGLE DIHED IMPRP ELECT VDW BOUNDARY MISC KINETIC TOTAL TEMP POTENTIAL TOTALAVG TEMPAVG PRESSURE GPRESSURE VOLUME PRESSAVG GPRESSAVG
ENERGY: 0 0.8462 10.3497 6.2731 0.0000 -10822.5547 1517.3224 0.0000 0.0000 1800.7139 -7487.0494 305.4645 -9287.7633 -7487.0494 305.4645 441.4449 543.0625 30488.8057 441.4449 543.0625
ENERGY: 300000 3.9102 17.0219 6.0839 0.0000 -10578.3665 1354.6588 0.0000 0.0000 1802.9304 -7393.7612 305.8405 -9196.6916 -7408.0118 307.5374 -498.1022 -521.9900 30637.1897 -107.1171 -61.1430
ENERGY: 600000 1.3241 6.0039 5.0530 0.0000 -10842.1029 1495.6127 0.0000 0.0000 1761.9253 -7572.1838 298.8846 -9334.1092 -7445.9788 305.7900 494.1124 546.4089 30024.4285 313.5224 353.8077
ENERGY: 900000 5.9488 12.0861 7.3852 0.0000 -10707.6887 1465.3748 0.0000 0.0000 1783.5274 -7433.3665 302.5491 -9216.8939 -7443.6231 304.5420 13.9538 70.5618 30731.9703 220.5264 262.9022
ENERGY: 1200000 1.1805 13.1818 6.0031 0.0000 -10731.0060 1486.8378 0.0000 0.0000 1743.9483 -7479.8544 295.8351 -9223.8027 -7448.5168 302.7207 454.0548 530.0812 30222.3509 254.9758 309.7653
ENERGY: 1500000 1.4953 8.2326 6.5419 0.0000 -10639.7357 1434.8391 0.0000 0.0000 1763.0891 -7425.5377 299.0820 -9188.6269 -7447.4735 302.7820 180.1487 185.3613 30711.5689 236.7840 292.0808
TCL: Running FEP window   7: Lambda1 0.6999999999999997 Lambda2 0.6499999999999997 [dLambda -0.050000000000000044]
TCL: Setting parameter firsttimestep to 0
TCL: Setting parameter alchLambda to 0.6999999999999997
Info: NONBONDED TABLE R-SQUARED SPACING: 0.0625
Info: NONBONDED TABLE SIZE: 705 POINTS
TCL: Setting parameter alchLambda2 to 0.6499999999999997
Info: NONBONDED TABLE R-SQUARED SPACING: 0.0625
Info: NONBONDED TABLE SIZE: 705 POINTS
TCL: Running for 1500000 steps
ETITLE: TS BOND ANGLE DIHED IMPRP ELECT VDW BOUNDARY MISC KINETIC TOTAL TEMP POTENTIAL TOTALAVG TEMPAVG PRESSURE GPRESSURE VOLUME PRESSAVG GPRESSAVG
ENERGY: 0 1.4953 8.2326 6.5419 0.0000 -10638.4455 1434.6928 0.0000 0.0000 1762.2838 -7425.1991 298.9454 -9187.4830 -7425.1991 298.9454 91.8027 173.2988 30711.5689 91.8027 173.2988
ENERGY: 300000 2.1423 10.4259 3.7816 0.0000 -10665.3959 1443.0952 0.0000 0.0000 1803.5537 -7402.3973 305.9462 -9205.9510 -7448.0652 302.9193 49.6019 121.4052 30373.6580 31.4532 88.0088
ENERGY: 600000 2.3505 6.8802 6.3326 0.0000 -10594.2034 1371.1762 0.0000 0.0000 1763.7763 -7443.6877 299.1986 -9207.4639 -7473.0232 299.8379 -447.9258 -377.4752 30594.5477 -53.9551 13.6886
ENERGY: 900000 6.0468 14.3825 6.8325 0.0000 -10697.8287 1401.0664 0.0000 0.0000 1712.8714 -7556.6291 290.5633 -9269.5005 -7480.4857 298.7278 -643.2889 -626.4510 30562.8669 -82.5685 -9.7607
ENERGY: 1200000 1.0525 12.1064 4.8593 0.0000 -10761.6198 1503.7619 0.0000 0.0000 1773.6991 -7466.1407 300.8818 -9239.8398 -7467.8623 298.9860 321.6154 371.4022 30480.7063 -20.7141 44.0321
ENERGY: 1500000 1.6949 14.1047 5.2525 0.0000 -10642.0344 1457.9461 0.0000 0.0000 1782.4186 -7380.6175 302.3610 -9163.0362 -7461.6333 299.6307 394.3569 411.3789 30861.7746 22.8176 83.7420
TCL: Running FEP window   8: Lambda1 0.6499999999999997 Lambda2 0.5999999999999996 [dLambda -0.050000000000000044]
TCL: Setting parameter firsttimestep to 0
TCL: Setting parameter alchLambda to 0.6499999999999997
Info: NONBONDED TABLE R-SQUARED SPACING: 0.0625
Info: NONBONDED TABLE SIZE: 705 POINTS
TCL: Setting parameter alchLambda2 to 0.5999999999999996
Info: NONBONDED TABLE R-SQUARED SPACING: 0.0625
Info: NONBONDED TABLE SIZE: 705 POINTS
TCL: Running for 1500000 steps
ETITLE: TS BOND ANGLE DIHED IMPRP ELECT VDW BOUNDARY MISC KINETIC TOTAL TEMP POTENTIAL TOTALAVG TEMPAVG PRESSURE GPRESSURE VOLUME PRESSAVG GPRESSAVG
ENERGY: 0 1.6949 14.1047 5.2525 0.0000 -10640.7142 1457.8812 0.0000 0.0000 1781.4932 -7380.2876 302.2040 -9161.7809 -7380.2876 302.2040 325.8983 399.4843 30861.7746 325.8983 399.4843
ENERGY: 300000 2.8887 15.1147 5.0727 0.0000 -10759.1643 1487.3377 0.0000 0.0000 1797.8261 -7450.9244 304.9746 -9248.7505 -7434.2890 304.0918 481.0455 549.0695 30140.9845 345.9657 409.1409
ENERGY: 600000 2.7471 12.1396 5.9191 0.0000 -10695.1037 1431.8225 0.0000 0.0000 1759.1904 -7483.2850 298.4207 -9242.4754 -7432.2820 303.5298 -182.7951 -79.7558 30570.0987 292.6008 353.9986
ENERGY: 900000 3.6816 8.6991 4.4516 0.0000 -10735.0574 1437.7512 0.0000 0.0000 1802.5203 -7477.9535 305.7709 -9280.4739 -7441.0067 304.8021 -271.4008 -245.0046 30452.9769 357.7010 411.3509
ENERGY: 1200000 3.9490 9.7203 4.0711 0.0000 -10688.3746 1463.0455 0.0000 0.0000 1756.9472 -7450.6415 298.0401 -9207.5887 -7449.1173 303.2177 79.3883 85.2362 30732.1834 283.1653 334.3305
ENERGY: 1500000 2.9058 11.4271 4.3630 0.0000 -10663.4829 1431.1434 0.0000 0.0000 1756.4099 -7457.2337 297.9490 -9213.6436 -7454.9453 301.8906 10.4232 43.0746 30590.9255 275.4557 324.4117
TCL: Running FEP window   9: Lambda1 0.5999999999999996 Lambda2 0.5499999999999996 [dLambda -0.050000000000000044]
TCL: Setting parameter firsttimestep to 0
TCL: Setting parameter alchLambda to 0.5999999999999996
Info: NONBONDED TABLE R-SQUARED SPACING: 0.0625
Info: NONBONDED TABLE SIZE: 705 POINTS
TCL: Setting parameter alchLambda2 to 0.5499999999999996
Info: NONBONDED TABLE R-SQUARED SPACING: 0.0625
Info: NONBONDED TABLE SIZE: 705 POINTS
TCL: Running for 1500000 steps
ETITLE: TS BOND ANGLE DIHED IMPRP ELECT VDW BOUNDARY MISC KINETIC TOTAL TEMP POTENTIAL TOTALAVG TEMPAVG PRESSURE GPRESSURE VOLUME PRESSAVG GPRESSAVG
ENERGY: 0 2.9058 11.4271 4.3630 0.0000 -10662.9319 1431.8055 0.0000 0.0000 1755.5312 -7456.8993 297.7999 -9212.4306 -7456.8993 297.7999 -39.7688 42.0157 30590.9255 -39.7688 42.0157
ENERGY: 300000 1.1324 12.2319 6.9311 0.0000 -10619.9882 1416.1306 0.0000 0.0000 1799.2344 -7384.3279 305.2135 -9183.5623 -7438.5501 304.1993 14.1159 87.6251 30583.9512 40.2049 114.8379
ENERGY: 600000 0.6436 7.3691 5.0394 0.0000 -10621.3038 1461.1668 0.0000 0.0000 1796.3059 -7350.7790 304.7168 -9147.0849 -7432.7176 302.5065 307.5738 351.2375 30706.1195 45.1138 106.1890
ENERGY: 900000 1.2889 10.3205 4.9510 0.0000 -10607.5280 1332.0109 0.0000 0.0000 1726.0394 -7532.9173 292.7971 -9258.9567 -7453.8132 300.9597 -1098.9534 -959.7718 30594.7728 -140.6247 -65.3187
ENERGY: 1200000 2.7203 17.9053 4.0854 0.0000 -10707.4227 1405.2583 0.0000 0.0000 1702.9113 -7574.5420 288.8737 -9277.4534 -7459.4163 300.1460 -357.4708 -282.9354 30264.4118 -213.8436 -139.7584
ENERGY: 1500000 3.5126 7.9611 4.9471 0.0000 -10689.6937 1371.9510 0.0000 0.0000 1769.3958 -7531.9260 300.1519 -9301.3219 -7465.7159 300.3983 -718.4542 -688.9000 30299.9220 -210.4148 -141.2933
TCL: Running FEP window  10: Lambda1 0.5499999999999996 Lambda2 0.4999999999999996 [dLambda -0.04999999999999999]
TCL: Setting parameter firsttimestep to 0
TCL: Setting parameter alchLambda to 0.5499999999999996
Info: NONBONDED TABLE R-SQUARED SPACING: 0.0625
Info: NONBONDED TABLE SIZE: 705 POINTS
TCL: Setting parameter alchLambda2 to 0.4999999999999996
Info: NONBONDED TABLE R-SQUARED SPACING: 0.0625
Info: NONBONDED TABLE SIZE: 705 POINTS
TCL: Running for 1500000 steps
ETITLE: TS BOND ANGLE DIHED IMPRP ELECT VDW BOUNDARY MISC KINETIC TOTAL TEMP POTENTIAL TOTALAVG TEMPAVG PRESSURE GPRESSURE VOLUME PRESSAVG GPRESSAVG
ENERGY: 0 3.5126 7.9611 4.9471 0.0000 -10689.4269 1372.1763 0.0000 0.0000 1768.5399 -7532.2898 300.0067 -9300.8297 -7532.2898 300.0067 -773.5070 -696.2274 30299.9220 -773.5070 -696.2274
ENERGY: 300000 2.7748 9.9977 4.8864 0.0000 -10603.9496 1438.3625 0.0000 0.0000 1747.9146 -7400.0136 296.5079 -9147.9282 -7471.3661 298.7119 -130.4528 -48.3772 30743.0989 -405.7957 -323.3671
ENERGY: 600000 2.9520 16.4947 9.4286 0.0000 -10684.9474 1466.7595 0.0000 0.0000 1752.5949 -7436.7176 297.3018 -9189.3125 -7460.1453 298.6407 384.9449 448.6650 30464.2211 -114.4861 -37.6907
ENERGY: 900000 2.5173 7.7431 5.9345 0.0000 -10815.2822 1533.6085 0.0000 0.0000 1771.1383 -7494.3406 300.4474 -9265.4788 -7463.0333 298.0099 624.3594 683.7737 30581.1986 15.7679 91.5768
ENERGY: 1200000 2.7358 10.0258 4.5426 0.0000 -10616.1577 1391.2325 0.0000 0.0000 1776.0106 -7431.6105 301.2740 -9207.6210 -7455.5141 298.2185 -500.4783 -473.9524 30505.1474 -8.1657 49.7183
ENERGY: 1500000 2.6684 10.4014 6.6841 0.0000 -10665.4726 1403.9311 0.0000 0.0000 1803.1322 -7438.6553 305.8747 -9241.7876 -7462.4420 298.8114 -184.7677 -143.1186 30513.9259 -50.7645 13.0451
TCL: Running FEP window  11: Lambda1 0.4999999999999996 Lambda2 0.4499999999999996 [dLambda -0.04999999999999999]
TCL: Setting parameter firsttimestep to 0
TCL: Setting parameter alchLambda to 0.4999999999999996
Info: NONBONDED TABLE R-SQUARED SPACING: 0.0625
Info: NONBONDED TABLE SIZE: 705 POINTS
TCL: Setting parameter alchLambda2 to 0.4499999999999996
Info: NONBONDED TABLE R-SQUARED SPACING: 0.0625
Info: NONBONDED TABLE SIZE: 705 POINTS
TCL: Running for 1500000 steps
ETITLE: TS BOND ANGLE DIHED IMPRP ELECT VDW BOUNDARY MISC KINETIC TOTAL TEMP POTENTIAL TOTALAVG TEMPAVG PRESSURE GPRESSURE VOLUME PRESSAVG GPRESSAVG
ENERGY: 0 2.6684 10.4014 6.6841 0.0000 -10664.7617 1403.7698 0.0000 0.0000 1802.2752 -7438.9628 305.7294 -9241.2379 -7438.9628 305.7294 -236.5072 -151.1801 30513.9259 -236.5072 -151.1801
ENERGY: 300000 2.6821 14.0059 4.8211 0.0000 -10707.3134 1488.7606 0.0000 0.0000 1793.1336 -7403.9100 304.1786 -9197.0437 -7478.0102 301.7062 451.4039 582.2782 30271.8561 219.6441 296.3142
ENERGY: 600000 4.2877 13.6593 6.5366 0.0000 -10624.2627 1385.9761 0.0000 0.0000 1769.0749 -7444.7281 300.0974 -9213.8030 -7493.3604 299.6065 -223.8321 -191.8043 30305.2122 129.5343 193.7728
ENERGY: 900000 1.2767 7.8886 6.8739 0.0000 -10723.0424 1437.4837 0.0000 0.0000 1747.1657 -7522.3537 296.3808 -9269.5194 -7487.6442 299.3609 -275.4309 -188.2462 30648.0478 -14.4846 46.4025
ENERGY: 1200000 2.7679 9.7468 4.9675 0.0000 -10711.2860 1483.2478 0.0000 0.0000 1769.2378 -7441.3182 300.1251 -9210.5560 -7484.0991 299.8663 260.6682 371.2212 30606.3935 60.0959 124.0134
ENERGY: 1500000 1.7142 11.0683 5.0850 0.0000 -10654.3263 1388.2405 0.0000 0.0000 1740.9411 -7507.2771 295.3249 -9248.2182 -7486.5502 299.4447 -232.2237 -195.3714 30314.2483 -28.1387 29.3267
TCL: Running FEP window  12: Lambda1 0.4499999999999996 Lambda2 0.39999999999999963 [dLambda -0.04999999999999999]
TCL: Setting parameter firsttimestep to 0
TCL: Setting parameter alchLambda to 0.4499999999999996
Info: NONBONDED TABLE R-SQUARED SPACING: 0.0625
Info: NONBONDED TABLE SIZE: 705 POINTS
TCL: Setting parameter alchLambda2 to 0.39999999999999963
Info: NONBONDED TABLE R-SQUARED SPACING: 0.0625
Info: NONBONDED TABLE SIZE: 705 POINTS
TCL: Running for 1500000 steps
ETITLE: TS BOND ANGLE DIHED IMPRP ELECT VDW BOUNDARY MISC KINETIC TOTAL TEMP POTENTIAL TOTALAVG TEMPAVG PRESSURE GPRESSURE VOLUME PRESSAVG GPRESSAVG
ENERGY: 0 1.7142 11.0683 5.0850 0.0000 -10654.3261 1388.3362 0.0000 0.0000 1740.0720 -7508.0504 295.1775 -9248.1224 -7508.0504 295.1775 -294.6648 -203.2981 30314.2483 -294.6648 -203.2981
ENERGY: 300000 3.9368 13.9725 4.3597 0.0000 -10656.0764 1457.8886 0.0000 0.0000 1728.4604 -7447.4584 293.2078 -9175.9188 -7516.4031 294.2612 409.0463 463.5103 30239.1461 48.1087 119.3456
ENERGY: 600000 2.2069 10.9090 4.2109 0.0000 -10634.0271 1356.5506 0.0000 0.0000 1835.8316 -7424.3180 311.4217 -9260.1497 -7495.8298 297.3351 -712.3501 -610.5934 30508.6151 -3.2345 67.0498
ENERGY: 900000 4.0853 8.2796 5.0707 0.0000 -10763.0415 1449.3366 0.0000 0.0000 1725.3037 -7570.9657 292.6723 -9296.2693 -7477.7813 298.3232 -210.1330 -121.8269 30178.5963 1.8633 68.0954
ENERGY: 1200000 4.2430 11.4238 4.3391 0.0000 -10565.5637 1322.3962 0.0000 0.0000 1773.5800 -7449.5815 300.8616 -9223.1615 -7479.2180 298.4242 -772.9747 -741.0777 30271.0693 -128.2676 -66.8382
ENERGY: 1500000 2.7366 8.7740 7.2510 0.0000 -10702.0324 1375.9418 0.0000 0.0000 1698.8914 -7608.4375 288.1918 -9307.3289 -7484.4749 297.9547 -911.7377 -846.1720 30522.9987 -152.0257 -91.7177
TCL: Running FEP window  13: Lambda1 0.39999999999999963 Lambda2 0.34999999999999964 [dLambda -0.04999999999999999]
TCL: Setting parameter firsttimestep to 0
TCL: Setting parameter alchLambda to 0.39999999999999963
Info: NONBONDED TABLE R-SQUARED SPACING: 0.0625
Info: NONBONDED TABLE SIZE: 705 POINTS
TCL: Setting parameter alchLambda2 to 0.34999999999999964
Info: NONBONDED TABLE R-SQUARED SPACING: 0.0625
Info: NONBONDED TABLE SIZE: 705 POINTS
TCL: Running for 1500000 steps
ETITLE: TS BOND ANGLE DIHED IMPRP ELECT VDW BOUNDARY MISC KINETIC TOTAL TEMP POTENTIAL TOTALAVG TEMPAVG PRESSURE GPRESSURE VOLUME PRESSAVG GPRESSAVG
ENERGY: 0 2.7366 8.7740 7.2510 0.0000 -10702.0345 1375.9299 0.0000 0.0000 1698.0485 -7609.2944 288.0488 -9307.3429 -7609.2944 288.0488 -933.6697 -854.3776 30522.9987 -933.6697 -854.3776
ENERGY: 300000 4.3375 16.6139 7.1290 0.0000 -10633.4890 1449.1482 0.0000 0.0000 1798.6219 -7357.6387 305.1096 -9156.2605 -7435.1806 299.8208 194.3939 253.2515 30583.5151 -531.7630 -447.2786
ENERGY: 600000 4.6384 9.7389 5.3335 0.0000 -10542.3116 1402.9825 0.0000 0.0000 1789.7781 -7329.8403 303.6094 -9119.6184 -7429.8604 301.1140 103.8106 130.4913 30389.7338 -181.2844 -131.1576
ENERGY: 900000 2.9982 9.9076 8.1967 0.0000 -10579.9867 1410.6931 0.0000 0.0000 1750.0241 -7398.1670 296.8657 -9148.1912 -7426.9230 301.0292 -106.8607 -6.3955 30669.3650 -184.4264 -119.0147
ENERGY: 1200000 4.9445 8.7481 3.6479 0.0000 -10615.5360 1422.3600 0.0000 0.0000 1732.3932 -7443.4422 293.8749 -9175.8354 -7434.3793 300.6028 -120.8795 -132.5991 30467.2998 -194.7786 -138.9440
ENERGY: 1500000 3.2319 9.9832 5.8919 0.0000 -10776.5685 1475.7024 0.0000 0.0000 1790.8600 -7490.8991 303.7929 -9281.7591 -7438.4358 300.8086 264.9760 354.4123 29931.2177 -76.4982 -15.2015
TCL: Running FEP window  14: Lambda1 0.34999999999999964 Lambda2 0.29999999999999966 [dLambda -0.04999999999999999]
TCL: Setting parameter firsttimestep to 0
TCL: Setting parameter alchLambda to 0.34999999999999964
Info: NONBONDED TABLE R-SQUARED SPACING: 0.0625
Info: NONBONDED TABLE SIZE: 705 POINTS
TCL: Setting parameter alchLambda2 to 0.29999999999999966
Info: NONBONDED TABLE R-SQUARED SPACING: 0.0625
Info: NONBONDED TABLE SIZE: 705 POINTS
TCL: Running for 1500000 steps
ETITLE: TS BOND ANGLE DIHED IMPRP ELECT VDW BOUNDARY MISC KINETIC TOTAL TEMP POTENTIAL TOTALAVG TEMPAVG PRESSURE GPRESSURE VOLUME PRESSAVG GPRESSAVG
ENERGY: 0 3.2319 9.9832 5.8919 0.0000 -10776.5709 1476.0313 0.0000 0.0000 1789.9859 -7491.4467 303.6447 -9281.4326 -7491.4467 303.6447 262.1071 350.9788 29931.2177 262.1071 350.9788
ENERGY: 300000 2.5459 11.1706 5.5187 0.0000 -10786.9483 1518.2357 0.0000 0.0000 1750.2056 -7499.2718 296.8965 -9249.4774 -7514.4456 298.4873 817.7449 813.0005 30131.3641 216.3440 261.2493
ENERGY: 600000 1.5069 9.0855 4.7071 0.0000 -10668.5439 1409.4635 0.0000 0.0000 1805.7347 -7438.0461 306.3162 -9243.7809 -7501.2575 297.2125 33.6503 123.0897 30052.9095 71.4008 138.4636
ENERGY: 900000 2.7925 11.3564 6.0396 0.0000 -10570.2095 1316.4339 0.0000 0.0000 1745.9718 -7487.6152 296.1783 -9233.5870 -7493.9731 298.5872 -971.5520 -945.8799 30430.6334 95.6934 157.6074
ENERGY: 1200000 5.5359 12.5016 5.7076 0.0000 -10712.5279 1439.8868 0.0000 0.0000 1764.1365 -7484.7594 299.2597 -9248.8960 -7477.6428 300.3116 -193.6624 -97.6893 30609.1803 35.8428 104.9358
ENERGY: 1500000 2.8761 9.1395 4.9177 0.0000 -10681.6663 1433.3157 0.0000 0.0000 1724.4950 -7506.9224 292.5351 -9231.4174 -7469.8250 300.8454 -152.7201 -89.3400 30298.7914 36.1283 104.7204
TCL: Running FEP window  15: Lambda1 0.29999999999999966 Lambda2 0.24999999999999967 [dLambda -0.04999999999999999]
TCL: Setting parameter firsttimestep to 0
TCL: Setting parameter alchLambda to 0.29999999999999966
Info: NONBONDED TABLE R-SQUARED SPACING: 0.0625
Info: NONBONDED TABLE SIZE: 705 POINTS
TCL: Setting parameter alchLambda2 to 0.24999999999999967
Info: NONBONDED TABLE R-SQUARED SPACING: 0.0625
Info: NONBONDED TABLE SIZE: 705 POINTS
TCL: Running for 1500000 steps
ETITLE: TS BOND ANGLE DIHED IMPRP ELECT VDW BOUNDARY MISC KINETIC TOTAL TEMP POTENTIAL TOTALAVG TEMPAVG PRESSURE GPRESSURE VOLUME PRESSAVG GPRESSAVG
ENERGY: 0 2.8761 9.1395 4.9177 0.0000 -10681.6660 1433.7704 0.0000 0.0000 1723.6312 -7507.3311 292.3886 -9230.9623 -7507.3311 292.3886 -150.0926 -92.0899 30298.7914 -150.0926 -92.0899
ENERGY: 300000 6.2085 12.2211 6.6041 0.0000 -10553.5069 1331.4262 0.0000 0.0000 1787.7800 -7409.2671 303.2705 -9197.0471 -7446.2497 301.2301 -1061.1998 -984.4410 30921.0088 -317.8458 -259.5215
ENERGY: 600000 1.0753 10.2569 4.9914 0.0000 -10872.3072 1497.3036 0.0000 0.0000 1798.7623 -7559.9177 305.1334 -9358.6800 -7452.8951 302.4252 148.5591 254.9134 30043.1339 -128.7760 -63.9024
ENERGY: 900000 4.9657 15.6166 4.8827 0.0000 -10813.7355 1510.6266 0.0000 0.0000 1835.8533 -7441.7906 311.4254 -9277.6439 -7440.7931 303.6391 315.2264 390.8107 30387.8475 45.3050 105.0245
ENERGY: 1200000 1.6995 11.7250 4.1709 0.0000 -10763.3064 1449.4064 0.0000 0.0000 1761.9739 -7534.3307 298.8928 -9296.3046 -7450.6607 302.6932 -147.2694 -98.7391 30209.7942 -31.2267 30.3247
ENERGY: 1500000 2.3201 9.2740 7.1402 0.0000 -10569.2318 1339.2572 0.0000 0.0000 1782.0108 -7429.2296 302.2918 -9211.2405 -7438.0405 302.9637 -372.4061 -304.2902 29605.3810 -43.5067 13.8063
TCL: Running FEP window  16: Lambda1 0.24999999999999967 Lambda2 0.19999999999999968 [dLambda -0.04999999999999999]
TCL: Setting parameter firsttimestep to 0
TCL: Setting parameter alchLambda to 0.24999999999999967
Info: NONBONDED TABLE R-SQUARED SPACING: 0.0625
Info: NONBONDED TABLE SIZE: 705 POINTS
TCL: Setting parameter alchLambda2 to 0.19999999999999968
Info: NONBONDED TABLE R-SQUARED SPACING: 0.0625
Info: NONBONDED TABLE SIZE: 705 POINTS
TCL: Running for 1500000 steps
ETITLE: TS BOND ANGLE DIHED IMPRP ELECT VDW BOUNDARY MISC KINETIC TOTAL TEMP POTENTIAL TOTALAVG TEMPAVG PRESSURE GPRESSURE VOLUME PRESSAVG GPRESSAVG
ENERGY: 0 2.3201 9.2740 7.1402 0.0000 -10569.2317 1339.3553 0.0000 0.0000 1781.1392 -7430.0030 302.1439 -9211.1422 -7430.0030 302.1439 -407.7638 -309.0250 29605.3810 -407.7638 -309.0250
ENERGY: 300000 3.0394 15.1497 3.7649 0.0000 -10648.2750 1388.7102 0.0000 0.0000 1696.0799 -7541.5310 287.7149 -9237.6109 -7519.2872 294.8767 -40.4222 30.0321 29774.8445 -403.7851 -321.3517
ENERGY: 600000 5.7077 12.4991 6.5166 0.0000 -10743.3743 1511.3329 0.0000 0.0000 1795.7929 -7411.5252 304.6297 -9207.3180 -7487.8614 297.5107 537.2752 543.5570 30336.3045 -114.4131 -57.6481
ENERGY: 900000 4.1516 12.6792 6.6076 0.0000 -10703.0917 1468.2219 0.0000 0.0000 1753.7064 -7457.7251 297.4904 -9211.4315 -7487.8375 298.6335 87.4010 159.7806 30365.2197 89.4339 144.7045
ENERGY: 1200000 1.1173 9.5880 5.1862 0.0000 -10615.8564 1362.2054 0.0000 0.0000 1782.9598 -7454.7997 302.4528 -9237.7595 -7482.4432 298.7553 -647.4958 -616.4193 30409.0777 -16.5454 39.4789
ENERGY: 1500000 0.9928 7.1902 4.3979 0.0000 -10735.3911 1451.5714 0.0000 0.0000 1799.2061 -7472.0327 305.2087 -9271.2388 -7473.6412 298.9287 -53.4276 50.6402 30286.3361 76.3362 135.2264
TCL: Running FEP window  17: Lambda1 0.19999999999999968 Lambda2 0.1499999999999997 [dLambda -0.04999999999999999]
TCL: Setting parameter firsttimestep to 0
TCL: Setting parameter alchLambda to 0.19999999999999968
Info: NONBONDED TABLE R-SQUARED SPACING: 0.0625
Info: NONBONDED TABLE SIZE: 705 POINTS
TCL: Setting parameter alchLambda2 to 0.1499999999999997
Info: NONBONDED TABLE R-SQUARED SPACING: 0.0625
Info: NONBONDED TABLE SIZE: 705 POINTS
TCL: Running for 1500000 steps
ETITLE: TS BOND ANGLE DIHED IMPRP ELECT VDW BOUNDARY MISC KINETIC TOTAL TEMP POTENTIAL TOTALAVG TEMPAVG PRESSURE GPRESSURE VOLUME PRESSAVG GPRESSAVG
ENERGY: 0 0.9928 7.1902 4.3979 0.0000 -10735.3900 1450.3567 0.0000 0.0000 1798.3287 -7474.1237 305.0599 -9272.4524 -7474.1237 305.0599 -44.6330 35.8711 30286.3361 -44.6330 35.8711
ENERGY: 300000 1.2165 11.2173 5.8203 0.0000 -10723.7085 1478.6042 0.0000 0.0000 1746.9069 -7479.9434 296.3369 -9226.8503 -7496.6519 299.7929 346.7597 451.0276 30160.6004 176.4146 239.1322
ENERGY: 600000 1.8910 13.0712 6.3174 0.0000 -10758.2933 1380.3165 0.0000 0.0000 1737.1962 -7619.5010 294.6897 -9356.6972 -7505.6450 300.4650 -561.5769 -523.6387 29676.2786 -31.8541 20.7273
ENERGY: 900000 4.0771 15.4310 5.0355 0.0000 -10458.1011 1315.8745 0.0000 0.0000 1804.6827 -7313.0003 306.1377 -9117.6830 -7464.3556 302.0313 -788.3233 -767.6507 30509.0712 -105.4809 -51.4403
ENERGY: 1200000 3.0902 10.6187 5.7558 0.0000 -10790.4723 1457.6586 0.0000 0.0000 1760.8413 -7552.5076 298.7007 -9313.3489 -7476.8710 301.2427 -345.1543 -208.1670 30307.0148 -121.5098 -63.9293
ENERGY: 1500000 5.1151 9.8685 4.5587 0.0000 -10638.1567 1427.8671 0.0000 0.0000 1765.7676 -7424.9797 299.5364 -9190.7474 -7477.4762 300.9350 -198.7354 -156.9277 30490.5694 -82.1447 -23.4582
TCL: Running FEP window  18: Lambda1 0.1499999999999997 Lambda2 0.09999999999999969 [dLambda -0.05 ]
TCL: Setting parameter firsttimestep to 0
TCL: Setting parameter alchLambda to 0.1499999999999997
Info: NONBONDED TABLE R-SQUARED SPACING: 0.0625
Info: NONBONDED TABLE SIZE: 705 POINTS
TCL: Setting parameter alchLambda2 to 0.09999999999999969
Info: NONBONDED TABLE R-SQUARED SPACING: 0.0625
Info: NONBONDED TABLE SIZE: 705 POINTS
TCL: Running for 1500000 steps
ETITLE: TS BOND ANGLE DIHED IMPRP ELECT VDW BOUNDARY MISC KINETIC TOTAL TEMP POTENTIAL TOTALAVG TEMPAVG PRESSURE GPRESSURE VOLUME PRESSAVG GPRESSAVG
ENERGY: 0 5.1151 9.8685 4.5587 0.0000 -10638.1578 1428.0555 0.0000 0.0000 1764.8724 -7425.6875 299.3845 -9190.5600 -7425.6875 299.3845 -251.3148 -158.3888 30490.5694 -251.3148 -158.3888
ENERGY: 300000 2.4566 10.3298 3.8146 0.0000 -10636.4468 1442.7254 0.0000 0.0000 1736.3190 -7440.8014 294.5409 -9177.1204 -7458.2185 298.4732 -213.2502 -180.7830 31054.8548 -87.3674 -32.9031
ENERGY: 600000 2.1069 9.9709 5.1569 0.0000 -10785.7119 1547.1044 0.0000 0.0000 1764.1085 -7457.2643 299.2549 -9221.3728 -7477.4157 298.9916 976.6368 986.4671 30137.1517 203.4623 264.1543
ENERGY: 900000 1.6860 13.3929 7.1729 0.0000 -10729.2482 1435.0733 0.0000 0.0000 1764.9186 -7507.0045 299.3924 -9271.9231 -7472.1220 298.8647 -56.5348 -11.4398 29983.8456 219.5498 277.7609
ENERGY: 1200000 3.7837 15.8335 4.7020 0.0000 -10601.7998 1387.7894 0.0000 0.0000 1799.7065 -7389.9847 305.2936 -9189.6912 -7451.6866 298.8375 -492.4698 -406.0222 30676.5045 106.1846 168.6575
ENERGY: 1500000 2.7586 7.7850 5.3879 0.0000 -10625.0193 1443.9741 0.0000 0.0000 1805.2312 -7359.8825 306.2308 -9165.1136 -7447.8469 299.2184 519.3115 509.9409 29994.4753 188.5253 241.1618
TCL: Running FEP window  19: Lambda1 0.09999999999999969 Lambda2 0.049999999999999684 [dLambda -0.05 ]
TCL: Setting parameter firsttimestep to 0
TCL: Setting parameter alchLambda to 0.09999999999999969
Info: NONBONDED TABLE R-SQUARED SPACING: 0.0625
Info: NONBONDED TABLE SIZE: 705 POINTS
TCL: Setting parameter alchLambda2 to 0.049999999999999684
Info: NONBONDED TABLE R-SQUARED SPACING: 0.0625
Info: NONBONDED TABLE SIZE: 705 POINTS
TCL: Running for 1500000 steps
ETITLE: TS BOND ANGLE DIHED IMPRP ELECT VDW BOUNDARY MISC KINETIC TOTAL TEMP POTENTIAL TOTALAVG TEMPAVG PRESSURE GPRESSURE VOLUME PRESSAVG GPRESSAVG
ENERGY: 0 2.7586 7.7850 5.3879 0.0000 -10625.0190 1443.4733 0.0000 0.0000 1804.3956 -7361.2186 306.0890 -9165.6141 -7361.2186 306.0890 415.3806 503.7145 29994.4753 415.3806 503.7145
ENERGY: 300000 1.3163 9.2497 3.7282 0.0000 -10725.2439 1420.7727 0.0000 0.0000 1741.3437 -7548.8333 295.3932 -9290.1770 -7464.0736 302.6251 -282.2844 -235.1879 30188.6263 -165.3686 -94.0810
ENERGY: 600000 2.7888 10.3031 5.1398 0.0000 -10593.4905 1335.0955 0.0000 0.0000 1831.7549 -7408.4084 310.7302 -9240.1633 -7431.4419 304.3233 -910.8162 -841.0108 30236.0952 -322.0099 -253.8221
ENERGY: 900000 2.0974 15.3029 4.6645 0.0000 -10774.6930 1407.8741 0.0000 0.0000 1760.5079 -7584.2463 298.6442 -9344.7542 -7456.7176 302.4615 -490.3635 -534.5485 30436.5944 -382.7513 -323.7281
ENERGY: 1200000 4.1500 11.4445 5.8167 0.0000 -10652.9509 1435.4627 0.0000 0.0000 1795.9232 -7400.1538 304.6518 -9196.0770 -7449.5891 302.6546 21.9975 99.0122 30181.5016 -265.8506 -208.9930
ENERGY: 1500000 2.6658 15.2309 5.9174 0.0000 -10642.8830 1394.4467 0.0000 0.0000 1784.7276 -7439.8945 302.7527 -9224.6221 -7452.2263 302.4547 -445.3540 -386.5071 30503.8822 -232.2602 -177.7150
TCL: Running FEP window  20: Lambda1 0.049999999999999684 Lambda2 0.0    [dLambda -0.049999999999999684]
TCL: Setting parameter firsttimestep to 0
TCL: Setting parameter alchLambda to 0.049999999999999684
Info: NONBONDED TABLE R-SQUARED SPACING: 0.0625
Info: NONBONDED TABLE SIZE: 705 POINTS
TCL: Setting parameter alchLambda2 to 0.0
Info: NONBONDED TABLE R-SQUARED SPACING: 0.0625
Info: NONBONDED TABLE SIZE: 705 POINTS
TCL: Running for 1500000 steps
ETITLE: TS BOND ANGLE DIHED IMPRP ELECT VDW BOUNDARY MISC KINETIC TOTAL TEMP POTENTIAL TOTALAVG TEMPAVG PRESSURE GPRESSURE VOLUME PRESSAVG GPRESSAVG
ENERGY: 0 2.6658 15.2309 5.9174 0.0000 -10642.8818 1394.4412 0.0000 0.0000 1783.8029 -7440.8237 302.5958 -9224.6265 -7440.8237 302.5958 -486.7664 -391.1391 30503.8822 -486.7664 -391.1391
ENERGY: 300000 4.3087 9.5539 4.8878 0.0000 -10645.8572 1396.2610 0.0000 0.0000 1769.1706 -7461.6752 300.1136 -9230.8457 -7449.0047 303.2982 -419.8790 -386.4735 30178.1130 -212.2020 -154.8058
ENERGY: 600000 4.9726 9.8024 6.5979 0.0000 -10645.5010 1423.8491 0.0000 0.0000 1733.3985 -7466.8805 294.0454 -9200.2789 -7463.2363 300.4828 -321.2309 -320.4257 30470.3432 -104.8034 -42.6204
ENERGY: 900000 1.2861 14.8987 3.9917 0.0000 -10699.8551 1489.8053 0.0000 0.0000 1758.1871 -7431.6862 298.2505 -9189.8733 -7459.4075 300.8609 581.7781 597.0066 30169.6380 -13.1893 44.1745
ENERGY: 1200000 2.2762 19.6946 4.7610 0.0000 -10710.9101 1422.9366 0.0000 0.0000 1717.3559 -7543.8858 291.3241 -9261.2417 -7464.6023 300.4327 -303.3060 -190.8394 30439.9238 -10.7502 55.1890
ENERGY: 1500000 3.8911 11.1091 5.5502 0.0000 -10579.9444 1358.1283 0.0000 0.0000 1707.6581 -7493.6075 289.6790 -9201.2656 -7477.9146 299.3353 -937.9884 -850.0907 30891.6239 -4.7992 65.6692
TCL: Exiting due to exit command.
