Info: SIMULATION PARAMETERS:
Info: TIMESTEP               2
Info: NUMBER OF STEPS        0
Info: STEPS PER CYCLE        10
Info: PERIODIC CELL BASIS 1  28.6417 0 0
Info: PERIODIC CELL BASIS 2  0 31.761 0
Info: PERIODIC CELL BASIS 3  0 0 33.4113
Info: PERIODIC CELL CENTER   0 0 0
Info: WRAPPING WATERS AROUND PERIODIC BOUNDARIES ON OUTPUT.
Info: WRAPPING ALL CLUSTERS AROUND PERIODIC BOUNDARIES ON OUTPUT.
Info: FIRST LDB TIMESTEP     50
Info: LAST LDB TIMESTEP     -1
Info: HOM BACKGROUND SCALING 1
Info: PME BACKGROUND SCALING 1
Info: MIN ATOMS PER PATCH    40
Info: EMPTY PATCH LOAD       40 ATOMS
Info: VELOCITY FILE          mobley_6248915_equil.vel
Info: CENTER OF MASS MOVING INITIALLY? NO
Info: DIELECTRIC             1
Info: EXCLUDE                SCALED ONE-FOUR
Info: 1-4 ELECTROSTATICS SCALED BY 0.833333
Info: MODIFIED 1-4 VDW PARAMETERS WILL BE USED
Info: DCD FILENAME           mobley_6248915_prod.dcd
Info: DCD FREQUENCY          100000
Info: DCD FIRST STEP         100000
Info: DCD FILE WILL CONTAIN UNIT CELL DATA
Info: XST FILENAME           mobley_6248915_prod.xst
Info: XST FREQUENCY          100000
Info: NO VELOCITY DCD OUTPUT
Info: NO FORCE DCD OUTPUT
Info: OUTPUT FILENAME        mobley_6248915_prod
Info: BINARY OUTPUT FILES WILL BE USED
Info: RESTART FILENAME       mobley_6248915_prod.restart
Info: RESTART FREQUENCY      100000
Info: BINARY RESTART FILES WILL BE USED
Info: CUTOFF                 9
Info: PAIRLIST DISTANCE      11
Info: PAIRLIST SHRINK RATE   0.01
Info: PAIRLIST GROW RATE     0.01
Info: PAIRLIST TRIGGER       0.3
Info: PAIRLISTS PER CYCLE    2
Info: PAIRLISTS ENABLED
Info: MARGIN                 2
Info: HYDROGEN GROUP CUTOFF  2.5
Info: PATCH DIMENSION        15.5
Info: ENERGY OUTPUT STEPS    100000
Info: ENERGY EVALUATION STEPS    100000
Info: OUTPUT ENERGY PRECISION 4
Info: CROSSTERM ENERGY INCLUDED IN DIHEDRAL
Info: TIMING OUTPUT STEPS    1000000
Info: PRESSURE OUTPUT STEPS  100000
Info: ALCHEMICAL FEP ON
Info: FEP CURRENT LAMBDA VALUE     1
Info: FEP COMPARISON LAMBDA VALUE  0.95
Info: FEP INTRA-ALCHEMICAL NON-BONDED INTERACTIONS WILL BE RETAINED
Info: FEP INTRA-ALCHEMICAL BONDED INTERACTIONS WILL BE RETAINED
Info: FEP VDW SHIFTING COEFFICIENT 5
Info: FEP ELEC. ACTIVE FOR ANNIHILATED PARTICLES BETWEEN LAMBDA = 0 AND LAMBDA = 0.5
Info: FEP ELEC. ACTIVE FOR EXNIHILATED PARTICLES BETWEEN LAMBDA = 0.5 AND LAMBDA = 1
Info: FEP VDW ACTIVE FOR ANNIHILATED PARTICLES BETWEEN LAMBDA = 0 AND LAMBDA = 1
Info: FEP VDW ACTIVE FOR EXNIHILATED PARTICLES BETWEEN LAMBDA = 0 AND LAMBDA = 1
Info: FEP BOND ACTIVE FOR ANNIHILATED PARTICLES BETWEEN LAMBDA = 1 AND LAMBDA = 1
Info: FEP BOND ACTIVE FOR EXNIHILATED PARTICLES BETWEEN LAMBDA = 0 AND LAMBDA = 0
Info: LANGEVIN DYNAMICS ACTIVE
Info: LANGEVIN TEMPERATURE   300
Info: LANGEVIN USING BBK INTEGRATOR
Info: LANGEVIN DAMPING COEFFICIENT IS 1 INVERSE PS
Info: LANGEVIN DYNAMICS APPLIED TO HYDROGENS
Info: LANGEVIN PISTON PRESSURE CONTROL ACTIVE
Info:        TARGET PRESSURE IS 1.01325 BAR
Info:     OSCILLATION PERIOD IS 50 FS
Info:             DECAY TIME IS 25 FS
Info:     PISTON TEMPERATURE IS 300 K
Info:       PRESSURE CONTROL IS GROUP-BASED
Info:    INITIAL STRAIN RATE IS 0.000108179 0.000108179 0.000108179
Info:       CELL FLUCTUATION IS ISOTROPIC
Info: PARTICLE MESH EWALD (PME) ACTIVE
Info: PME TOLERANCE               1e-06
Info: PME EWALD COEFFICIENT       0.348832
Info: PME INTERPOLATION ORDER     4
Info: PME GRID DIMENSIONS         32 32 36
Info: PME MAXIMUM GRID SPACING    1
Info: PME CALCULATION WILL BE PERFORMED ON GPU
Info: FULL ELECTROSTATIC EVALUATION FREQUENCY      2
Info: USING VERLET I (r-RESPA) MTS SCHEME.
Info: C1 SPLITTING OF LONG RANGE ELECTROSTATICS
Info: PLACING ATOMS IN PATCHES BY HYDROGEN GROUPS
Info: RIGID BONDS TO HYDROGEN : ALL
Info:         ERROR TOLERANCE : 1e-08
Info:          MAX ITERATIONS : 100
Info: RIGID WATER USING SETTLE ALGORITHM
Info: RANDOM NUMBER SEED     1744072491
Info: USE HYDROGEN BONDS?    NO
Info: Using AMBER format force field!
Info: AMBER PARM FILE        mobley_6248915.prmtop
Info: COORDINATE PDB         mobley_6248915.pdb
Info: Exclusions will be read from PARM file!
Info: SCNB (VDW SCALING)     2
Info: USING ARITHMETIC MEAN TO COMBINE L-J SIGMA PARAMETERS
Info: BINARY COORDINATES     mobley_6248915_equil.coor
Info: SUMMARY OF PARAMETERS:
Info: 7 BONDS
Info: 9 ANGLES
Info:   9 HARMONIC
Info:   0 COSINE-BASED
Info: 7 DIHEDRAL
Info: 0 IMPROPER
Info: 0 CROSSTERM
Info: 0 VDW
Info: 28 VDW_PAIRS
Info: 0 NBTHOLE_PAIRS
Info: To read alchdata from file: mobley_6248915.pdb
Info: To read alchflag data from column: 5
Info: STRUCTURE SUMMARY:
Info: 2935 ATOMS
Info: 2934 BONDS
Info: 51 ANGLES
Info: 79 DIHEDRALS
Info: 0 IMPROPERS
Info: 0 CROSSTERMS
Info: 3054 EXCLUSIONS
Info: 2926 RIGID BONDS
Info: ALCH: 0 ATOMS TO DISAPPEAR IN FINAL STATE
Info: ALCH: 28 ATOMS TO APPEAR IN FINAL STATE
Info: 5879 DEGREES OF FREEDOM
Info: 978 HYDROGEN GROUPS
Info: 4 ATOMS IN LARGEST HYDROGEN GROUP
Info: 978 MIGRATION GROUPS
Info: 4 ATOMS IN LARGEST MIGRATION GROUP
Info: TOTAL MASS = 17586.7 amu
Info: TOTAL CHARGE = 2.6077e-08 e
Info: MASS DENSITY = 0.960858 g/cm^3
Info: ATOM DENSITY = 0.0965656 atoms/A^3
Info: ADDED 0 IMPLICIT EXCLUSIONS
Info: NONBONDED TABLE R-SQUARED SPACING: 0.0625
Info: NONBONDED TABLE SIZE: 705 POINTS
Info: REMOVING COM VELOCITY 0.227597 0.122604 -0.0190205
Info: Use 3D box decompostion in PME FFT.
Info: Updated CUDA force table with 4096 elements.
Info: Updated CUDA LJ table with 7 x 7 elements.
Info: Found 31 unique exclusion lists needing 116 bytes
TCL: Running for 1500000 steps
ETITLE: TS BOND ANGLE DIHED IMPRP ELECT VDW BOUNDARY MISC KINETIC TOTAL TEMP POTENTIAL TOTALAVG TEMPAVG PRESSURE GPRESSURE VOLUME PRESSAVG GPRESSAVG
ENERGY: 0 4.3019 11.5255 6.1170 0.0000 -10597.0921 1450.3387 0.0000 0.0000 1807.9271 -7316.8819 309.5051 -9124.8090 -7316.8819 309.5051 74.5735 159.8414 30393.8505 74.5735 159.8414
ENERGY: 300000 2.7059 13.3456 5.7287 0.0000 -10566.1255 1425.3836 0.0000 0.0000 1777.3909 -7341.5708 304.2775 -9118.9616 -7367.2340 301.3858 419.1213 503.3107 30211.9749 87.3046 179.1621
ENERGY: 600000 4.6564 12.6219 4.3590 0.0000 -10301.1588 1273.9639 0.0000 0.0000 1729.9341 -7275.6234 296.1532 -9005.5575 -7365.0161 301.1509 -984.9004 -926.7520 30794.0062 -177.0945 -98.0932
ENERGY: 900000 0.5591 16.4465 7.5098 0.0000 -10656.1766 1450.9629 0.0000 0.0000 1773.0398 -7407.6584 303.5326 -9180.6982 -7378.6570 301.1001 243.5139 330.6917 30100.0917 -91.3287 -19.2284
ENERGY: 1200000 3.9238 13.3772 4.2067 0.0000 -10677.0421 1479.5385 0.0000 0.0000 1793.5837 -7382.4122 307.0496 -9175.9959 -7375.7502 301.5000 589.3444 692.8160 29903.1955 27.9845 104.2222
ENERGY: 1500000 2.1097 13.2782 5.7953 0.0000 -10460.8667 1349.3729 0.0000 0.0000 1702.1574 -7388.1532 291.3981 -9090.3106 -7379.9972 300.5264 -443.5940 -385.5658 30095.0645 65.9225 140.5691
TCL: Running FEP window   2: Lambda1 0.95   Lambda2 0.8999999999999999 [dLambda -0.050000000000000044]
TCL: Setting parameter firsttimestep to 0
TCL: Setting parameter alchLambda to 0.95
Info: NONBONDED TABLE R-SQUARED SPACING: 0.0625
Info: NONBONDED TABLE SIZE: 705 POINTS
TCL: Setting parameter alchLambda2 to 0.8999999999999999
Info: NONBONDED TABLE R-SQUARED SPACING: 0.0625
Info: NONBONDED TABLE SIZE: 705 POINTS
TCL: Running for 1500000 steps
ETITLE: TS BOND ANGLE DIHED IMPRP ELECT VDW BOUNDARY MISC KINETIC TOTAL TEMP POTENTIAL TOTALAVG TEMPAVG PRESSURE GPRESSURE VOLUME PRESSAVG GPRESSAVG
ENERGY: 0 2.1097 13.2782 5.7953 0.0000 -10459.6627 1348.9280 0.0000 0.0000 1701.3453 -7388.2063 291.2590 -9089.5515 -7388.2063 291.2590 -501.2497 -408.2243 30095.0645 -501.2497 -408.2243
ENERGY: 300000 0.2020 18.1574 3.7407 0.0000 -10607.4574 1424.4239 0.0000 0.0000 1702.2515 -7458.6818 291.4142 -9160.9333 -7428.6537 295.3961 165.0428 240.0195 29848.7371 -35.3947 61.1705
ENERGY: 600000 0.9088 19.3781 5.7191 0.0000 -10457.4021 1340.7649 0.0000 0.0000 1754.8610 -7335.7702 300.4206 -9090.6311 -7419.7463 296.1756 -406.4604 -341.8539 30296.6598 -95.7140 -13.2494
ENERGY: 900000 3.5581 10.7377 4.2007 0.0000 -10640.2407 1437.0458 0.0000 0.0000 1755.5904 -7429.1079 300.5454 -9184.6984 -7415.8475 296.2458 -143.5494 -75.0093 30430.1594 -88.4872 -10.2839
ENERGY: 1200000 3.4433 16.5054 5.0815 0.0000 -10673.6263 1449.6937 0.0000 0.0000 1785.4260 -7413.4764 305.6531 -9198.9024 -7412.4527 298.3765 -7.2530 116.0387 30329.8025 -34.3571 40.2102
ENERGY: 1500000 1.0021 14.2787 5.6868 0.0000 -10629.6430 1452.3370 0.0000 0.0000 1721.3625 -7434.9759 294.6858 -9156.3384 -7411.2863 298.5439 177.0102 215.8727 30404.0388 10.0907 82.2994
TCL: Running FEP window   3: Lambda1 0.8999999999999999 Lambda2 0.8499999999999999 [dLambda -0.050000000000000044]
TCL: Setting parameter firsttimestep to 0
TCL: Setting parameter alchLambda to 0.8999999999999999
Info: NONBONDED TABLE R-SQUARED SPACING: 0.0625
Info: NONBONDED TABLE SIZE: 705 POINTS
TCL: Setting parameter alchLambda2 to 0.8499999999999999
Info: NONBONDED TABLE R-SQUARED SPACING: 0.0625
Info: NONBONDED TABLE SIZE: 705 POINTS
TCL: Running for 1500000 steps
ETITLE: TS BOND ANGLE DIHED IMPRP ELECT VDW BOUNDARY MISC KINETIC TOTAL TEMP POTENTIAL TOTALAVG TEMPAVG PRESSURE GPRESSURE VOLUME PRESSAVG GPRESSAVG
ENERGY: 0 1.0021 14.2787 5.6868 0.0000 -10628.2032 1452.6438 0.0000 0.0000 1720.4806 -7434.1112 294.5349 -9154.5918 -7434.1112 294.5349 129.3354 209.0507 30404.0388 129.3354 209.0507
ENERGY: 300000 2.0299 12.6624 6.7181 0.0000 -10605.3255 1424.5882 0.0000 0.0000 1697.5868 -7461.7400 290.6156 -9159.3267 -7470.3843 292.5391 238.7898 288.6996 29734.7952 90.9202 151.2366
ENERGY: 600000 3.0085 14.6169 4.6219 0.0000 -10658.8865 1523.0322 0.0000 0.0000 1747.4624 -7366.1445 299.1540 -9113.6070 -7439.5540 294.9108 848.5851 911.3285 30215.9097 204.3083 266.6965
ENERGY: 900000 0.3400 13.9949 5.3713 0.0000 -10505.0153 1373.4961 0.0000 0.0000 1724.6827 -7387.1303 295.2542 -9111.8130 -7422.1129 295.2758 -105.1354 -53.1916 30029.3683 89.8047 146.7673
ENERGY: 1200000 4.1716 10.0622 4.7986 0.0000 -10538.5068 1404.6368 0.0000 0.0000 1811.8715 -7302.9661 310.1804 -9114.8377 -7397.4309 297.7787 -54.3239 -24.6599 30229.0096 72.1020 126.6212
ENERGY: 1500000 1.3191 20.0802 4.6248 0.0000 -10542.0601 1412.4710 0.0000 0.0000 1743.3143 -7360.2508 298.4438 -9103.5651 -7394.6526 297.9965 237.9757 291.3079 30147.5183 14.5193 72.8490
TCL: Running FEP window   4: Lambda1 0.8499999999999999 Lambda2 0.7999999999999998 [dLambda -0.050000000000000044]
TCL: Setting parameter firsttimestep to 0
TCL: Setting parameter alchLambda to 0.8499999999999999
Info: NONBONDED TABLE R-SQUARED SPACING: 0.0625
Info: NONBONDED TABLE SIZE: 705 POINTS
TCL: Setting parameter alchLambda2 to 0.7999999999999998
Info: NONBONDED TABLE R-SQUARED SPACING: 0.0625
Info: NONBONDED TABLE SIZE: 705 POINTS
TCL: Running for 1500000 steps
ETITLE: TS BOND ANGLE DIHED IMPRP ELECT VDW BOUNDARY MISC KINETIC TOTAL TEMP POTENTIAL TOTALAVG TEMPAVG PRESSURE GPRESSURE VOLUME PRESSAVG GPRESSAVG
ENERGY: 0 1.3190 20.0802 4.6248 0.0000 -10541.2778 1412.9397 0.0000 0.0000 1742.4209 -7359.8931 298.2909 -9102.3140 -7359.8931 298.2909 190.3673 284.5914 30147.5183 190.3673 284.5914
ENERGY: 300000 5.1082 15.8774 6.7405 0.0000 -10699.8656 1453.2192 0.0000 0.0000 1817.8806 -7401.0398 311.2091 -9218.9204 -7371.9264 301.0494 168.3422 235.2690 29903.9986 286.6133 365.7241
ENERGY: 600000 3.9816 12.3882 3.9809 0.0000 -10566.1054 1436.8190 0.0000 0.0000 1738.3855 -7370.5502 297.6001 -9108.9357 -7382.7711 298.3928 135.0915 174.1409 30320.2630 -18.0056 50.5930
ENERGY: 900000 2.0208 11.8491 4.9353 0.0000 -10571.5713 1412.1872 0.0000 0.0000 1670.4534 -7470.1255 285.9705 -9140.5788 -7384.4059 298.8924 -123.7419 -72.3395 30169.3267 -149.2925 -78.0015
ENERGY: 1200000 4.0158 15.8621 5.1874 0.0000 -10541.4079 1357.7016 0.0000 0.0000 1764.1390 -7394.5020 302.0089 -9158.6410 -7371.3619 299.5129 -867.3925 -819.6801 30607.6765 -219.6439 -149.8579
ENERGY: 1500000 3.1721 13.5373 5.2830 0.0000 -10634.7703 1436.0386 0.0000 0.0000 1827.2284 -7349.5110 312.8094 -9176.7394 -7359.5467 301.4286 -215.4009 -144.4394 30276.0189 -130.5552 -62.0838
TCL: Running FEP window   5: Lambda1 0.7999999999999998 Lambda2 0.7499999999999998 [dLambda -0.050000000000000044]
TCL: Setting parameter firsttimestep to 0
TCL: Setting parameter alchLambda to 0.7999999999999998
Info: NONBONDED TABLE R-SQUARED SPACING: 0.0625
Info: NONBONDED TABLE SIZE: 705 POINTS
TCL: Setting parameter alchLambda2 to 0.7499999999999998
Info: NONBONDED TABLE R-SQUARED SPACING: 0.0625
Info: NONBONDED TABLE SIZE: 705 POINTS
TCL: Running for 1500000 steps
ETITLE: TS BOND ANGLE DIHED IMPRP ELECT VDW BOUNDARY MISC KINETIC TOTAL TEMP POTENTIAL TOTALAVG TEMPAVG PRESSURE GPRESSURE VOLUME PRESSAVG GPRESSAVG
ENERGY: 0 3.1721 13.5373 5.2830 0.0000 -10633.5900 1435.7051 0.0000 0.0000 1826.3530 -7349.5395 312.6595 -9175.8925 -7349.5395 312.6595 -238.5055 -156.5518 30276.0189 -238.5055 -156.5518
ENERGY: 300000 1.1231 11.8408 7.7725 0.0000 -10655.0492 1471.2962 0.0000 0.0000 1779.2808 -7383.7358 304.6011 -9163.0166 -7385.0467 304.9326 504.9052 524.3125 30089.4485 34.4751 99.1429
ENERGY: 600000 1.6620 15.8054 3.4533 0.0000 -10535.6870 1404.6359 0.0000 0.0000 1815.5807 -7294.5497 310.8154 -9110.1304 -7375.3901 304.2651 118.3205 186.9992 29988.2599 33.3804 86.8748
ENERGY: 900000 0.8307 12.6220 3.8874 0.0000 -10621.1837 1448.3128 0.0000 0.0000 1796.0599 -7359.4709 307.4735 -9155.5308 -7373.0425 304.2924 437.6093 540.5381 29956.8949 4.8867 64.0262
ENERGY: 1200000 2.3675 13.0383 4.7800 0.0000 -10643.5126 1454.6295 0.0000 0.0000 1757.9041 -7410.7931 300.9415 -9168.6972 -7380.5509 303.0643 397.3936 413.6480 29828.8159 -73.9636 -22.9089
ENERGY: 1500000 1.2584 11.6332 5.6309 0.0000 -10447.1552 1357.6783 0.0000 0.0000 1715.5336 -7355.4208 293.6880 -9070.9544 -7377.6039 302.4136 -430.7447 -322.3408 30288.5826 -64.0628 -14.3262
TCL: Running FEP window   6: Lambda1 0.7499999999999998 Lambda2 0.6999999999999997 [dLambda -0.050000000000000044]
TCL: Setting parameter firsttimestep to 0
TCL: Setting parameter alchLambda to 0.7499999999999998
Info: NONBONDED TABLE R-SQUARED SPACING: 0.0625
Info: NONBONDED TABLE SIZE: 705 POINTS
TCL: Setting parameter alchLambda2 to 0.6999999999999997
Info: NONBONDED TABLE R-SQUARED SPACING: 0.0625
Info: NONBONDED TABLE SIZE: 705 POINTS
TCL: Running for 1500000 steps
ETITLE: TS BOND ANGLE DIHED IMPRP ELECT VDW BOUNDARY MISC KINETIC TOTAL TEMP POTENTIAL TOTALAVG TEMPAVG PRESSURE GPRESSURE VOLUME PRESSAVG GPRESSAVG
ENERGY: 0 1.2584 11.6332 5.6309 0.0000 -10445.4860 1356.6754 0.0000 0.0000 1714.6277 -7355.6605 293.5329 -9070.2881 -7355.6605 293.5329 -423.3906 -343.7772 30288.5826 -423.3906 -343.7772
ENERGY: 300000 1.6034 15.3649 5.4363 0.0000 -10825.4373 1550.8787 0.0000 0.0000 1735.4467 -7516.7073 297.0970 -9252.1540 -7438.0844 293.6646 599.2935 544.6895 30215.8193 401.0040 426.9448
ENERGY: 600000 1.3463 13.1758 3.8407 0.0000 -10352.3313 1334.7665 0.0000 0.0000 1704.8689 -7294.3331 291.8622 -8999.2021 -7416.8464 294.8261 -206.0482 -205.7637 30362.4447 339.0971 371.3240
ENERGY: 900000 0.9112 13.7319 3.8045 0.0000 -10690.9883 1364.9633 0.0000 0.0000 1686.9869 -7620.5906 288.8010 -9307.5775 -7431.8822 294.9352 -776.5255 -702.9769 29849.3755 143.1302 188.9460
ENERGY: 1200000 1.3638 12.2163 4.6798 0.0000 -10529.8226 1354.1850 0.0000 0.0000 1800.4086 -7356.9692 308.2180 -9157.3778 -7407.8458 296.2507 -485.4900 -400.3410 30296.1053 4.3964 53.2173
ENERGY: 1500000 6.4289 9.6506 4.3093 0.0000 -10633.4749 1413.5274 0.0000 0.0000 1746.7803 -7452.7784 299.0372 -9199.5587 -7399.1579 297.2982 -292.7964 -244.0880 30095.4680 -136.8836 -86.0984
TCL: Running FEP window   7: Lambda1 0.6999999999999997 Lambda2 0.6499999999999997 [dLambda -0.050000000000000044]
TCL: Setting parameter firsttimestep to 0
TCL: Setting parameter alchLambda to 0.6999999999999997
Info: NONBONDED TABLE R-SQUARED SPACING: 0.0625
Info: NONBONDED TABLE SIZE: 705 POINTS
TCL: Setting parameter alchLambda2 to 0.6499999999999997
Info: NONBONDED TABLE R-SQUARED SPACING: 0.0625
Info: NONBONDED TABLE SIZE: 705 POINTS
TCL: Running for 1500000 steps
ETITLE: TS BOND ANGLE DIHED IMPRP ELECT VDW BOUNDARY MISC KINETIC TOTAL TEMP POTENTIAL TOTALAVG TEMPAVG PRESSURE GPRESSURE VOLUME PRESSAVG GPRESSAVG
ENERGY: 0 6.4289 9.6506 4.3093 0.0000 -10631.8156 1413.9061 0.0000 0.0000 1745.9304 -7451.5903 298.8917 -9197.5207 -7451.5903 298.8917 -345.1424 -251.1613 30095.4680 -345.1424 -251.1613
ENERGY: 300000 3.3758 17.9775 3.6319 0.0000 -10553.8773 1368.3085 0.0000 0.0000 1758.4022 -7402.1815 301.0268 -9160.5837 -7423.0561 294.3476 -770.9466 -735.9676 30784.5104 -446.1109 -366.9427
ENERGY: 600000 1.7980 16.7560 4.6284 0.0000 -10599.5772 1376.3494 0.0000 0.0000 1746.4995 -7453.5458 298.9891 -9200.0453 -7398.8420 297.4865 -472.7800 -411.6733 30024.5750 -211.3331 -156.0083
ENERGY: 900000 2.1740 16.4586 5.9474 0.0000 -10388.0686 1334.1277 0.0000 0.0000 1667.7269 -7361.6340 285.5038 -9029.3609 -7407.9930 295.8067 -816.9317 -743.8690 30817.6575 -274.0616 -219.3910
ENERGY: 1200000 1.7574 13.4640 3.9745 0.0000 -10542.1675 1401.3414 0.0000 0.0000 1743.7461 -7377.8841 298.5178 -9121.6302 -7399.6735 295.6757 69.8780 148.2944 30028.9585 -213.7598 -158.7339
ENERGY: 1500000 3.7281 13.1810 5.5609 0.0000 -10609.1759 1394.7679 0.0000 0.0000 1771.5596 -7420.3784 303.2793 -9191.9381 -7395.7254 296.5947 -318.9814 -264.5984 30133.0179 -206.3962 -151.9142
TCL: Running FEP window   8: Lambda1 0.6499999999999997 Lambda2 0.5999999999999996 [dLambda -0.050000000000000044]
TCL: Setting parameter firsttimestep to 0
TCL: Setting parameter alchLambda to 0.6499999999999997
Info: NONBONDED TABLE R-SQUARED SPACING: 0.0625
Info: NONBONDED TABLE SIZE: 705 POINTS
TCL: Setting parameter alchLambda2 to 0.5999999999999996
Info: NONBONDED TABLE R-SQUARED SPACING: 0.0625
Info: NONBONDED TABLE SIZE: 705 POINTS
TCL: Running for 1500000 steps
ETITLE: TS BOND ANGLE DIHED IMPRP ELECT VDW BOUNDARY MISC KINETIC TOTAL TEMP POTENTIAL TOTALAVG TEMPAVG PRESSURE GPRESSURE VOLUME PRESSAVG GPRESSAVG
ENERGY: 0 3.7281 13.1810 5.5609 0.0000 -10608.5205 1394.5970 0.0000 0.0000 1770.7233 -7420.7302 303.1361 -9191.4535 -7420.7302 303.1361 -364.5150 -275.0907 30133.0179 -364.5150 -275.0907
ENERGY: 300000 3.0570 10.3218 4.4175 0.0000 -10462.2861 1364.6632 0.0000 0.0000 1740.3780 -7339.4486 297.9412 -9079.8266 -7367.2234 300.3084 -94.8156 -60.9144 29881.8785 -361.6076 -298.2617
ENERGY: 600000 4.7855 12.8088 4.2856 0.0000 -10570.0842 1430.8303 0.0000 0.0000 1723.3527 -7394.0213 295.0265 -9117.3740 -7391.3322 298.0193 280.2075 298.6276 29697.1559 -171.3599 -114.6766
ENERGY: 900000 1.6732 12.8894 6.7018 0.0000 -10576.1986 1404.2016 0.0000 0.0000 1767.7515 -7382.9811 302.6273 -9150.7326 -7389.9402 299.2250 23.6068 47.1087 29932.8121 -148.0861 -93.7597
ENERGY: 1200000 2.6997 14.8991 7.6423 0.0000 -10641.8180 1446.4519 0.0000 0.0000 1711.8658 -7458.2592 293.0601 -9170.1249 -7388.7412 299.1503 -15.4271 31.1170 29795.7616 -120.2444 -65.8902
ENERGY: 1500000 2.1628 16.4895 5.4827 0.0000 -10454.0185 1321.7844 0.0000 0.0000 1754.6174 -7353.4816 300.3789 -9108.0991 -7381.4355 298.8688 -693.9262 -648.0969 30213.9481 -115.5758 -58.4627
TCL: Running FEP window   9: Lambda1 0.5999999999999996 Lambda2 0.5499999999999996 [dLambda -0.050000000000000044]
TCL: Setting parameter firsttimestep to 0
TCL: Setting parameter alchLambda to 0.5999999999999996
Info: NONBONDED TABLE R-SQUARED SPACING: 0.0625
Info: NONBONDED TABLE SIZE: 705 POINTS
TCL: Setting parameter alchLambda2 to 0.5499999999999996
Info: NONBONDED TABLE R-SQUARED SPACING: 0.0625
Info: NONBONDED TABLE SIZE: 705 POINTS
TCL: Running for 1500000 steps
ETITLE: TS BOND ANGLE DIHED IMPRP ELECT VDW BOUNDARY MISC KINETIC TOTAL TEMP POTENTIAL TOTALAVG TEMPAVG PRESSURE GPRESSURE VOLUME PRESSAVG GPRESSAVG
ENERGY: 0 2.1628 16.4895 5.4827 0.0000 -10453.5539 1322.3306 0.0000 0.0000 1753.7250 -7353.3633 300.2261 -9107.0883 -7353.3633 300.2261 -741.8787 -652.1748 30213.9481 -741.8787 -652.1748
ENERGY: 300000 1.9872 17.3579 3.9996 0.0000 -10659.0588 1487.1158 0.0000 0.0000 1733.1682 -7415.4301 296.7069 -9148.5983 -7380.6200 296.5893 488.2881 606.8927 30164.7156 -29.7283 51.8779
ENERGY: 600000 1.7305 11.2848 5.1372 0.0000 -10564.5008 1432.0633 0.0000 0.0000 1704.0064 -7410.2787 291.7146 -9114.2851 -7374.4592 295.5771 214.6113 324.2498 29950.6388 -72.6520 -5.0163
ENERGY: 900000 2.1670 11.5058 4.5516 0.0000 -10636.8021 1430.1691 0.0000 0.0000 1747.7016 -7440.7070 299.1949 -9188.4086 -7375.9640 297.3422 -10.6014 27.2101 29845.8439 -134.4948 -64.1459
ENERGY: 1200000 2.5771 17.4660 3.3406 0.0000 -10557.5675 1372.9286 0.0000 0.0000 1726.7407 -7434.5146 295.6066 -9161.2553 -7382.4170 297.8718 -536.3124 -504.2158 30440.9854 -90.1366 -30.2583
ENERGY: 1500000 3.4479 12.4916 5.2222 0.0000 -10556.7241 1418.6903 0.0000 0.0000 1724.5845 -7392.2876 295.2374 -9116.8721 -7376.3815 298.3303 64.4724 53.4498 30168.7077 -89.6374 -34.3371
TCL: Running FEP window  10: Lambda1 0.5499999999999996 Lambda2 0.4999999999999996 [dLambda -0.04999999999999999]
TCL: Setting parameter firsttimestep to 0
TCL: Setting parameter alchLambda to 0.5499999999999996
Info: NONBONDED TABLE R-SQUARED SPACING: 0.0625
Info: NONBONDED TABLE SIZE: 705 POINTS
TCL: Setting parameter alchLambda2 to 0.4999999999999996
Info: NONBONDED TABLE R-SQUARED SPACING: 0.0625
Info: NONBONDED TABLE SIZE: 705 POINTS
TCL: Running for 1500000 steps
ETITLE: TS BOND ANGLE DIHED IMPRP ELECT VDW BOUNDARY MISC KINETIC TOTAL TEMP POTENTIAL TOTALAVG TEMPAVG PRESSURE GPRESSURE VOLUME PRESSAVG GPRESSAVG
ENERGY: 0 3.4479 12.4916 5.2222 0.0000 -10555.5528 1418.3797 0.0000 0.0000 1723.7115 -7392.3000 295.0880 -9116.0115 -7392.3000 295.0880 -36.1596 43.6607 30168.7077 -36.1596 43.6607
ENERGY: 300000 0.7759 12.5547 3.5765 0.0000 -10585.5049 1468.0595 0.0000 0.0000 1792.5630 -7307.9753 306.8749 -9100.5383 -7333.9055 302.7430 373.7862 484.2643 30314.5586 -51.9953 37.4489
ENERGY: 600000 4.4032 11.4605 3.8059 0.0000 -10435.3581 1340.3747 0.0000 0.0000 1748.3315 -7326.9823 299.3027 -9075.3138 -7336.7196 302.0872 -780.7540 -704.3548 30786.2419 -165.7484 -72.2710
ENERGY: 900000 2.3540 11.5768 6.4067 0.0000 -10513.9365 1375.3244 0.0000 0.0000 1818.8800 -7299.3946 311.3802 -9118.2746 -7341.2128 302.7013 -333.7656 -259.6170 30235.2040 -240.1031 -154.5597
ENERGY: 1200000 1.2356 13.2415 9.4215 0.0000 -10562.0741 1457.8062 0.0000 0.0000 1735.5668 -7344.8026 297.1175 -9080.3694 -7358.6078 301.3673 278.9582 372.4661 30292.8863 -235.0931 -148.3093
ENERGY: 1500000 2.5886 9.5204 4.9405 0.0000 -10571.8422 1465.8701 0.0000 0.0000 1776.2705 -7312.6521 304.0857 -9088.9226 -7365.8608 300.9998 462.4309 484.9835 30214.0134 -154.8905 -77.4650
TCL: Running FEP window  11: Lambda1 0.4999999999999996 Lambda2 0.4499999999999996 [dLambda -0.04999999999999999]
TCL: Setting parameter firsttimestep to 0
TCL: Setting parameter alchLambda to 0.4999999999999996
Info: NONBONDED TABLE R-SQUARED SPACING: 0.0625
Info: NONBONDED TABLE SIZE: 705 POINTS
TCL: Setting parameter alchLambda2 to 0.4499999999999996
Info: NONBONDED TABLE R-SQUARED SPACING: 0.0625
Info: NONBONDED TABLE SIZE: 705 POINTS
TCL: Running for 1500000 steps
ETITLE: TS BOND ANGLE DIHED IMPRP ELECT VDW BOUNDARY MISC KINETIC TOTAL TEMP POTENTIAL TOTALAVG TEMPAVG PRESSURE GPRESSURE VOLUME PRESSAVG GPRESSAVG
ENERGY: 0 2.5886 9.5204 4.9405 0.0000 -10571.5179 1466.5738 0.0000 0.0000 1775.3868 -7312.5078 303.9344 -9087.8947 -7312.5078 303.9344 393.1554 485.4617 30214.0134 393.1554 485.4617
ENERGY: 300000 5.4698 14.3519 3.5230 0.0000 -10554.9284 1390.1141 0.0000 0.0000 1756.5797 -7384.8899 300.7148 -9141.4696 -7376.6610 300.4904 -242.3387 -232.3269 29754.1340 127.9359 166.0197
ENERGY: 600000 2.3112 11.3582 4.5666 0.0000 -10471.7562 1383.4825 0.0000 0.0000 1746.8096 -7323.2280 299.0422 -9070.0376 -7353.2921 301.2140 -20.1169 30.2416 29954.5500 -80.6525 -24.1303
ENERGY: 900000 5.4063 13.5764 5.6412 0.0000 -10660.2961 1487.0114 0.0000 0.0000 1796.7723 -7351.8885 307.5955 -9148.6608 -7351.7398 302.4302 305.8736 345.1392 30410.7420 -70.8709 -15.7626
ENERGY: 1200000 1.4957 14.4787 4.9657 0.0000 -10538.9657 1366.1236 0.0000 0.0000 1765.3813 -7386.5208 302.2216 -9151.9021 -7359.3205 302.7369 -467.1313 -373.5669 29959.2794 -125.2752 -64.3913
ENERGY: 1500000 2.2017 14.2841 4.5944 0.0000 -10536.0346 1416.3576 0.0000 0.0000 1797.6753 -7300.9214 307.7501 -9098.5968 -7356.5410 303.2754 -567.8349 -477.9183 31073.7107 -143.3500 -81.5283
TCL: Running FEP window  12: Lambda1 0.4499999999999996 Lambda2 0.39999999999999963 [dLambda -0.04999999999999999]
TCL: Setting parameter firsttimestep to 0
TCL: Setting parameter alchLambda to 0.4499999999999996
Info: NONBONDED TABLE R-SQUARED SPACING: 0.0625
Info: NONBONDED TABLE SIZE: 705 POINTS
TCL: Setting parameter alchLambda2 to 0.39999999999999963
Info: NONBONDED TABLE R-SQUARED SPACING: 0.0625
Info: NONBONDED TABLE SIZE: 705 POINTS
TCL: Running for 1500000 steps
ETITLE: TS BOND ANGLE DIHED IMPRP ELECT VDW BOUNDARY MISC KINETIC TOTAL TEMP POTENTIAL TOTALAVG TEMPAVG PRESSURE GPRESSURE VOLUME PRESSAVG GPRESSAVG
ENERGY: 0 2.2017 14.2840 4.5944 0.0000 -10536.0348 1416.9078 0.0000 0.0000 1796.8511 -7301.1957 307.6090 -9098.0468 -7301.1957 307.6090 -562.0907 -479.1107 31073.7107 -562.0907 -479.1107
ENERGY: 300000 2.8610 15.7798 3.7606 0.0000 -10555.2492 1382.8216 0.0000 0.0000 1811.8634 -7338.1628 310.1790 -9150.0262 -7389.2947 302.5118 -687.0157 -603.7769 30393.0678 -213.3357 -138.9276
ENERGY: 600000 5.3207 9.8541 4.8058 0.0000 -10886.2663 1568.3121 0.0000 0.0000 1743.5629 -7554.4107 298.4864 -9297.9736 -7421.3679 302.2267 797.7934 844.2824 29675.0639 136.7475 199.5021
ENERGY: 900000 2.3376 12.5818 7.1209 0.0000 -10725.0420 1537.0319 0.0000 0.0000 1788.6293 -7377.3405 306.2015 -9165.9698 -7401.4540 302.8922 779.1281 814.8187 30056.0708 84.5695 145.2676
ENERGY: 1200000 2.1291 14.0829 5.2655 0.0000 -10541.0095 1468.4225 0.0000 0.0000 1753.2502 -7297.8593 300.1448 -9051.1095 -7372.3144 302.9466 727.1036 722.5883 29872.8508 152.5202 218.9022
ENERGY: 1500000 1.1403 10.0105 6.5957 0.0000 -10571.5034 1411.9507 0.0000 0.0000 1745.9809 -7395.8253 298.9003 -9141.8062 -7384.8274 302.1491 -31.0131 96.3749 29786.4312 124.1132 194.5461
TCL: Running FEP window  13: Lambda1 0.39999999999999963 Lambda2 0.34999999999999964 [dLambda -0.04999999999999999]
TCL: Setting parameter firsttimestep to 0
TCL: Setting parameter alchLambda to 0.39999999999999963
Info: NONBONDED TABLE R-SQUARED SPACING: 0.0625
Info: NONBONDED TABLE SIZE: 705 POINTS
TCL: Setting parameter alchLambda2 to 0.34999999999999964
Info: NONBONDED TABLE R-SQUARED SPACING: 0.0625
Info: NONBONDED TABLE SIZE: 705 POINTS
TCL: Running for 1500000 steps
ETITLE: TS BOND ANGLE DIHED IMPRP ELECT VDW BOUNDARY MISC KINETIC TOTAL TEMP POTENTIAL TOTALAVG TEMPAVG PRESSURE GPRESSURE VOLUME PRESSAVG GPRESSAVG
ENERGY: 0 1.1404 10.0105 6.5957 0.0000 -10571.5035 1410.9584 0.0000 0.0000 1745.1405 -7397.6580 298.7565 -9142.7986 -7397.6580 298.7565 -1.2164 79.8877 29786.4312 -1.2164 79.8877
ENERGY: 300000 1.4626 12.9756 4.9658 0.0000 -10554.9419 1487.8895 0.0000 0.0000 1819.5709 -7228.0775 311.4985 -9047.6484 -7346.9278 302.4070 712.7824 798.3282 30186.3591 109.1129 184.6103
ENERGY: 600000 3.7811 9.8517 5.2913 0.0000 -10631.6351 1492.5434 0.0000 0.0000 1739.8446 -7380.3230 297.8499 -9120.1676 -7381.0412 299.7612 383.6785 471.9253 30201.7422 -109.4157 -28.6252
ENERGY: 900000 2.1097 11.1892 6.8016 0.0000 -10601.5810 1482.2575 0.0000 0.0000 1743.1154 -7356.1076 298.4098 -9099.2231 -7381.4909 299.2062 557.2740 614.6343 30110.5435 -79.4320 -1.1579
ENERGY: 1200000 1.8839 14.3149 6.2000 0.0000 -10665.4219 1501.7158 0.0000 0.0000 1819.1634 -7322.1439 311.4287 -9141.3073 -7374.4365 300.7847 750.3909 791.9176 29774.8799 -40.8827 33.7802
ENERGY: 1500000 1.9650 17.4676 4.7701 0.0000 -10516.1257 1375.5245 0.0000 0.0000 1795.7243 -7320.6741 307.4161 -9116.3985 -7366.7705 302.0464 -440.4283 -340.5957 30440.2550 -36.5753 33.4431
TCL: Running FEP window  14: Lambda1 0.34999999999999964 Lambda2 0.29999999999999966 [dLambda -0.04999999999999999]
TCL: Setting parameter firsttimestep to 0
TCL: Setting parameter alchLambda to 0.34999999999999964
Info: NONBONDED TABLE R-SQUARED SPACING: 0.0625
Info: NONBONDED TABLE SIZE: 705 POINTS
TCL: Setting parameter alchLambda2 to 0.29999999999999966
Info: NONBONDED TABLE R-SQUARED SPACING: 0.0625
Info: NONBONDED TABLE SIZE: 705 POINTS
TCL: Running for 1500000 steps
ETITLE: TS BOND ANGLE DIHED IMPRP ELECT VDW BOUNDARY MISC KINETIC TOTAL TEMP POTENTIAL TOTALAVG TEMPAVG PRESSURE GPRESSURE VOLUME PRESSAVG GPRESSAVG
ENERGY: 0 1.9650 17.4676 4.7701 0.0000 -10516.1275 1375.6166 0.0000 0.0000 1794.8453 -7321.4628 307.2656 -9116.3082 -7321.4628 307.2656 -437.3905 -346.3175 30440.2550 -437.3905 -346.3175
ENERGY: 300000 2.6900 13.7934 6.3839 0.0000 -10681.9680 1465.5774 0.0000 0.0000 1747.8193 -7445.7040 299.2151 -9193.5233 -7381.9904 301.5530 128.0644 178.0299 29849.3001 -393.2581 -329.7203
ENERGY: 600000 1.0283 10.3887 5.2571 0.0000 -10770.3654 1568.7083 0.0000 0.0000 1782.4582 -7402.5247 305.1450 -9184.9829 -7381.3267 302.8177 983.5172 1113.6996 29899.4782 -185.3288 -129.3537
ENERGY: 900000 5.4988 7.0372 6.8872 0.0000 -10494.5551 1371.7622 0.0000 0.0000 1810.9433 -7292.4264 310.0215 -9103.3697 -7362.8283 302.8244 -427.2256 -371.7577 30464.5825 -332.5587 -270.3555
ENERGY: 1200000 1.3276 14.6912 5.8580 0.0000 -10531.9095 1314.8710 0.0000 0.0000 1781.1404 -7414.0213 304.9194 -9195.1617 -7369.0423 302.9929 -926.6087 -926.3369 30083.4225 -330.5888 -272.2072
ENERGY: 1500000 2.4654 18.7542 4.1265 0.0000 -10675.2989 1542.3967 0.0000 0.0000 1749.7918 -7357.7643 299.5527 -9107.5561 -7359.3683 302.7035 1045.9457 1108.9155 29884.2502 -214.1410 -154.7752
TCL: Running FEP window  15: Lambda1 0.29999999999999966 Lambda2 0.24999999999999967 [dLambda -0.04999999999999999]
TCL: Setting parameter firsttimestep to 0
TCL: Setting parameter alchLambda to 0.29999999999999966
Info: NONBONDED TABLE R-SQUARED SPACING: 0.0625
Info: NONBONDED TABLE SIZE: 705 POINTS
TCL: Setting parameter alchLambda2 to 0.24999999999999967
Info: NONBONDED TABLE R-SQUARED SPACING: 0.0625
Info: NONBONDED TABLE SIZE: 705 POINTS
TCL: Running for 1500000 steps
ETITLE: TS BOND ANGLE DIHED IMPRP ELECT VDW BOUNDARY MISC KINETIC TOTAL TEMP POTENTIAL TOTALAVG TEMPAVG PRESSURE GPRESSURE VOLUME PRESSAVG GPRESSAVG
ENERGY: 0 2.4654 18.7542 4.1265 0.0000 -10675.2961 1541.9791 0.0000 0.0000 1748.8849 -7359.0861 299.3975 -9107.9710 -7359.0861 299.3975 1012.7768 1097.4392 29884.2502 1012.7768 1097.4392
ENERGY: 300000 0.8165 12.7172 4.2437 0.0000 -10538.0860 1418.0386 0.0000 0.0000 1772.5205 -7329.7495 303.4437 -9102.2700 -7319.5301 302.9365 -24.0939 47.6525 30226.0731 166.9635 248.1565
ENERGY: 600000 1.6521 8.2499 4.2634 0.0000 -10616.4899 1426.7035 0.0000 0.0000 1701.9257 -7473.6953 291.3584 -9175.6210 -7354.6482 299.5715 -249.5747 -146.0322 30254.6368 163.5582 230.3619
ENERGY: 900000 1.7352 13.9140 5.0318 0.0000 -10481.4303 1368.9402 0.0000 0.0000 1753.5176 -7338.2916 300.1906 -9091.8092 -7355.7316 299.5676 -559.9715 -464.0218 30428.5426 47.9549 114.4791
ENERGY: 1200000 1.8798 13.3755 3.6441 0.0000 -10426.7835 1359.8707 0.0000 0.0000 1777.3103 -7270.7031 304.2637 -9048.0134 -7346.9245 300.4026 -369.1617 -311.6751 30450.8357 -26.1912 37.8954
ENERGY: 1500000 3.1947 15.6058 5.0456 0.0000 -10526.6881 1389.2564 0.0000 0.0000 1808.8106 -7304.7749 309.6564 -9113.5855 -7349.5033 300.2582 -59.2208 -14.4217 29837.2405 -46.2473 19.4910
TCL: Running FEP window  16: Lambda1 0.24999999999999967 Lambda2 0.19999999999999968 [dLambda -0.04999999999999999]
TCL: Setting parameter firsttimestep to 0
TCL: Setting parameter alchLambda to 0.24999999999999967
Info: NONBONDED TABLE R-SQUARED SPACING: 0.0625
Info: NONBONDED TABLE SIZE: 705 POINTS
TCL: Setting parameter alchLambda2 to 0.19999999999999968
Info: NONBONDED TABLE R-SQUARED SPACING: 0.0625
Info: NONBONDED TABLE SIZE: 705 POINTS
TCL: Running for 1500000 steps
ETITLE: TS BOND ANGLE DIHED IMPRP ELECT VDW BOUNDARY MISC KINETIC TOTAL TEMP POTENTIAL TOTALAVG TEMPAVG PRESSURE GPRESSURE VOLUME PRESSAVG GPRESSAVG
ENERGY: 0 3.1947 15.6058 5.0456 0.0000 -10526.6894 1389.4000 0.0000 0.0000 1807.9341 -7305.5092 309.5063 -9113.4433 -7305.5092 309.5063 -111.5394 -19.6665 29837.2405 -111.5394 -19.6665
ENERGY: 300000 2.4185 12.4205 5.9973 0.0000 -10615.6715 1467.5677 0.0000 0.0000 1759.4378 -7367.8298 301.2041 -9127.2676 -7340.7079 299.4279 226.3460 285.3727 30159.0810 -142.2897 -68.9977
ENERGY: 600000 1.8277 11.9039 4.1991 0.0000 -10602.5733 1395.8178 0.0000 0.0000 1777.4576 -7411.3672 304.2889 -9188.8248 -7360.4226 299.4728 -145.2911 -77.5585 29805.5520 106.5679 195.4115
ENERGY: 900000 3.8163 17.1825 4.4006 0.0000 -10637.5303 1504.6082 0.0000 0.0000 1761.4505 -7346.0723 301.5486 -9107.5228 -7374.6967 298.4926 601.5577 655.6653 29856.0706 -3.7341 90.2711
ENERGY: 1200000 2.7232 13.3981 3.8958 0.0000 -10410.7700 1383.2596 0.0000 0.0000 1740.0204 -7267.4729 297.8799 -9007.4933 -7366.2905 298.1407 122.3684 171.7258 29931.1536 29.1822 112.8993
ENERGY: 1500000 3.1940 12.8882 5.0611 0.0000 -10518.6862 1368.1200 0.0000 0.0000 1714.8959 -7414.5270 293.5788 -9129.4229 -7358.1735 298.7583 -904.4662 -820.1766 30647.2124 -79.4238 -3.1732
TCL: Running FEP window  17: Lambda1 0.19999999999999968 Lambda2 0.1499999999999997 [dLambda -0.04999999999999999]
TCL: Setting parameter firsttimestep to 0
TCL: Setting parameter alchLambda to 0.19999999999999968
Info: NONBONDED TABLE R-SQUARED SPACING: 0.0625
Info: NONBONDED TABLE SIZE: 705 POINTS
TCL: Setting parameter alchLambda2 to 0.1499999999999997
Info: NONBONDED TABLE R-SQUARED SPACING: 0.0625
Info: NONBONDED TABLE SIZE: 705 POINTS
TCL: Running for 1500000 steps
ETITLE: TS BOND ANGLE DIHED IMPRP ELECT VDW BOUNDARY MISC KINETIC TOTAL TEMP POTENTIAL TOTALAVG TEMPAVG PRESSURE GPRESSURE VOLUME PRESSAVG GPRESSAVG
ENERGY: 0 3.1940 12.8882 5.0611 0.0000 -10518.6869 1367.7526 0.0000 0.0000 1713.9631 -7415.8278 293.4191 -9129.7910 -7415.8278 293.4191 -917.1628 -827.2425 30647.2124 -917.1628 -827.2425
ENERGY: 300000 2.8610 10.7665 3.8541 0.0000 -10539.0157 1342.3593 0.0000 0.0000 1801.9161 -7377.2586 308.4761 -9179.1747 -7361.5858 301.7067 -737.6312 -716.4491 30071.1856 -758.2394 -710.1094
ENERGY: 600000 2.3978 13.2659 5.3120 0.0000 -10719.7823 1480.4748 0.0000 0.0000 1738.8617 -7479.4701 297.6816 -9218.3318 -7370.0939 301.5011 302.2764 346.2192 29470.2000 -434.4277 -381.9879
ENERGY: 900000 0.2803 12.4125 6.3837 0.0000 -10550.4015 1437.8921 0.0000 0.0000 1729.8000 -7363.6329 296.1303 -9093.4329 -7367.5317 299.9311 304.7812 308.3295 29992.4189 -318.4838 -264.0205
ENERGY: 1200000 3.4787 15.5922 4.3167 0.0000 -10684.2876 1538.8414 0.0000 0.0000 1704.8628 -7417.1958 291.8612 -9122.0586 -7376.5616 298.8000 959.4255 979.0591 29966.2411 -199.5050 -140.8303
ENERGY: 1500000 1.9693 8.6868 5.8824 0.0000 -10567.6664 1485.8640 0.0000 0.0000 1806.7224 -7258.5415 309.2989 -9065.2639 -7380.7352 299.3181 865.8665 876.5934 29818.1581 -150.2708 -92.9800
TCL: Running FEP window  18: Lambda1 0.1499999999999997 Lambda2 0.09999999999999969 [dLambda -0.05 ]
TCL: Setting parameter firsttimestep to 0
TCL: Setting parameter alchLambda to 0.1499999999999997
Info: NONBONDED TABLE R-SQUARED SPACING: 0.0625
Info: NONBONDED TABLE SIZE: 705 POINTS
TCL: Setting parameter alchLambda2 to 0.09999999999999969
Info: NONBONDED TABLE R-SQUARED SPACING: 0.0625
Info: NONBONDED TABLE SIZE: 705 POINTS
TCL: Running for 1500000 steps
ETITLE: TS BOND ANGLE DIHED IMPRP ELECT VDW BOUNDARY MISC KINETIC TOTAL TEMP POTENTIAL TOTALAVG TEMPAVG PRESSURE GPRESSURE VOLUME PRESSAVG GPRESSAVG
ENERGY: 0 1.9693 8.6868 5.8824 0.0000 -10567.6668 1486.5770 0.0000 0.0000 1805.8860 -7258.6653 309.1557 -9064.5513 -7258.6653 309.1557 797.5608 876.2769 29818.1581 797.5608 876.2769
ENERGY: 300000 2.0628 9.6716 4.1118 0.0000 -10549.4752 1396.9410 0.0000 0.0000 1724.7567 -7411.9312 295.2669 -9136.6879 -7404.0553 295.8139 -87.7355 -27.3987 29737.2031 -90.5670 -13.8495
ENERGY: 600000 4.8433 10.5978 3.5131 0.0000 -10574.3904 1401.8465 0.0000 0.0000 1729.2301 -7424.3595 296.0327 -9153.5897 -7406.3637 298.2905 -458.0284 -435.8461 30187.7649 -187.4299 -126.8407
ENERGY: 900000 2.0756 8.6992 4.2022 0.0000 -10776.8810 1506.4374 0.0000 0.0000 1725.9079 -7529.5586 295.4640 -9255.4665 -7405.8715 297.9207 411.6491 478.0093 29762.8565 -75.2535 -13.7915
ENERGY: 1200000 1.3736 16.3838 4.3897 0.0000 -10574.3726 1435.0714 0.0000 0.0000 1743.4199 -7373.7344 298.4619 -9117.1543 -7395.6391 299.3584 -248.2853 -207.7890 30639.5243 -82.1854 -27.4911
ENERGY: 1500000 1.9963 12.8206 3.4607 0.0000 -10734.1890 1509.3646 0.0000 0.0000 1726.4940 -7480.0528 295.5643 -9206.5468 -7401.0801 298.6001 350.4638 374.3946 29901.5102 23.7158 76.8986
TCL: Running FEP window  19: Lambda1 0.09999999999999969 Lambda2 0.049999999999999684 [dLambda -0.05 ]
TCL: Setting parameter firsttimestep to 0
TCL: Setting parameter alchLambda to 0.09999999999999969
Info: NONBONDED TABLE R-SQUARED SPACING: 0.0625
Info: NONBONDED TABLE SIZE: 705 POINTS
TCL: Setting parameter alchLambda2 to 0.049999999999999684
Info: NONBONDED TABLE R-SQUARED SPACING: 0.0625
Info: NONBONDED TABLE SIZE: 705 POINTS
TCL: Running for 1500000 steps
ETITLE: TS BOND ANGLE DIHED IMPRP ELECT VDW BOUNDARY MISC KINETIC TOTAL TEMP POTENTIAL TOTALAVG TEMPAVG PRESSURE GPRESSURE VOLUME PRESSAVG GPRESSAVG
ENERGY: 0 1.9963 12.8206 3.4607 0.0000 -10734.1905 1509.5180 0.0000 0.0000 1725.6190 -7480.7758 295.4145 -9206.3948 -7480.7758 295.4145 299.8948 371.1367 29901.5102 299.8948 371.1367
ENERGY: 300000 3.7498 18.9579 4.6722 0.0000 -10604.4504 1430.0187 0.0000 0.0000 1775.5783 -7371.4734 303.9672 -9147.0517 -7362.3767 302.5338 173.8815 201.5570 29843.5133 25.2989 88.4280
ENERGY: 600000 4.8566 8.5411 3.5877 0.0000 -10791.8512 1563.4403 0.0000 0.0000 1789.5740 -7421.8516 306.3632 -9211.4256 -7383.8689 303.5093 850.3286 918.8616 29702.1432 250.3808 315.2270
ENERGY: 900000 6.7223 10.7890 5.1876 0.0000 -10521.8042 1351.5973 0.0000 0.0000 1739.8650 -7407.6431 297.8533 -9147.5081 -7386.6127 301.5751 -1019.3545 -946.5149 30153.2045 75.9982 129.3042
ENERGY: 1200000 3.4213 9.8151 7.2929 0.0000 -10554.6982 1400.7977 0.0000 0.0000 1689.5636 -7443.8077 289.2421 -9133.3712 -7379.0034 301.7503 -310.9919 -252.2036 29865.0621 63.9665 120.4430
ENERGY: 1500000 2.0802 15.1279 3.1620 0.0000 -10451.4478 1309.2442 0.0000 0.0000 1784.3511 -7337.4824 305.4691 -9121.8335 -7380.6413 301.7064 -1068.7672 -968.3388 30268.9634 -5.2873 52.1189
TCL: Running FEP window  20: Lambda1 0.049999999999999684 Lambda2 0.0    [dLambda -0.049999999999999684]
TCL: Setting parameter firsttimestep to 0
TCL: Setting parameter alchLambda to 0.049999999999999684
Info: NONBONDED TABLE R-SQUARED SPACING: 0.0625
Info: NONBONDED TABLE SIZE: 705 POINTS
TCL: Setting parameter alchLambda2 to 0.0
Info: NONBONDED TABLE R-SQUARED SPACING: 0.0625
Info: NONBONDED TABLE SIZE: 705 POINTS
TCL: Running for 1500000 steps
ETITLE: TS BOND ANGLE DIHED IMPRP ELECT VDW BOUNDARY MISC KINETIC TOTAL TEMP POTENTIAL TOTALAVG TEMPAVG PRESSURE GPRESSURE VOLUME PRESSAVG GPRESSAVG
ENERGY: 0 2.0802 15.1279 3.1620 0.0000 -10451.4484 1309.4275 0.0000 0.0000 1783.4825 -7338.1683 305.3204 -9121.6508 -7338.1683 305.3204 -1058.8305 -969.2939 30268.9634 -1058.8305 -969.2939
ENERGY: 300000 1.4266 16.5427 5.8041 0.0000 -10561.8467 1411.6011 0.0000 0.0000 1746.1322 -7380.3400 298.9262 -9126.4722 -7337.4776 303.5605 -12.7915 -24.3249 29885.9899 -250.2393 -177.0143
ENERGY: 600000 5.4939 13.3821 5.5544 0.0000 -10514.2539 1339.3035 0.0000 0.0000 1779.5884 -7370.9316 304.6537 -9150.5200 -7365.6677 303.6177 -698.6975 -637.5064 29918.6322 -246.5215 -190.7100
ENERGY: 900000 2.4214 14.7565 3.8938 0.0000 -10537.6415 1449.8826 0.0000 0.0000 1784.2164 -7282.4707 305.4460 -9066.6871 -7352.6798 303.2154 189.5302 284.2498 30381.4460 -223.0689 -165.3315
ENERGY: 1200000 5.2143 13.2472 4.3392 0.0000 -10567.5999 1431.2418 0.0000 0.0000 1764.8727 -7348.6847 302.1345 -9113.5574 -7360.4956 302.9276 -237.2799 -203.1637 30452.1438 -191.5395 -133.3187
ENERGY: 1500000 3.6512 11.1183 3.9402 0.0000 -10606.9654 1441.3613 0.0000 0.0000 1771.4579 -7375.4366 303.2618 -9146.8944 -7373.4268 301.6006 -228.7176 -175.8114 30718.8972 -221.5335 -159.8073
TCL: Exiting due to exit command.
