Info: SIMULATION PARAMETERS:
Info: TIMESTEP               2
Info: NUMBER OF STEPS        0
Info: STEPS PER CYCLE        10
Info: PERIODIC CELL BASIS 1  34.3029 0 0
Info: PERIODIC CELL BASIS 2  0 29.0075 0
Info: PERIODIC CELL BASIS 3  0 0 30.6123
Info: PERIODIC CELL CENTER   0 0 0
Info: WRAPPING WATERS AROUND PERIODIC BOUNDARIES ON OUTPUT.
Info: WRAPPING ALL CLUSTERS AROUND PERIODIC BOUNDARIES ON OUTPUT.
Info: FIRST LDB TIMESTEP     50
Info: LAST LDB TIMESTEP     -1
Info: HOM BACKGROUND SCALING 1
Info: PME BACKGROUND SCALING 1
Info: MIN ATOMS PER PATCH    40
Info: EMPTY PATCH LOAD       40 ATOMS
Info: VELOCITY FILE          mobley_588781_equil.vel
Info: CENTER OF MASS MOVING INITIALLY? NO
Info: DIELECTRIC             1
Info: EXCLUDE                SCALED ONE-FOUR
Info: 1-4 ELECTROSTATICS SCALED BY 0.833333
Info: MODIFIED 1-4 VDW PARAMETERS WILL BE USED
Info: DCD FILENAME           mobley_588781_prod.dcd
Info: DCD FREQUENCY          100000
Info: DCD FIRST STEP         100000
Info: DCD FILE WILL CONTAIN UNIT CELL DATA
Info: XST FILENAME           mobley_588781_prod.xst
Info: XST FREQUENCY          100000
Info: NO VELOCITY DCD OUTPUT
Info: NO FORCE DCD OUTPUT
Info: OUTPUT FILENAME        mobley_588781_prod
Info: BINARY OUTPUT FILES WILL BE USED
Info: RESTART FILENAME       mobley_588781_prod.restart
Info: RESTART FREQUENCY      100000
Info: BINARY RESTART FILES WILL BE USED
Info: CUTOFF                 9
Info: PAIRLIST DISTANCE      11
Info: PAIRLIST SHRINK RATE   0.01
Info: PAIRLIST GROW RATE     0.01
Info: PAIRLIST TRIGGER       0.3
Info: PAIRLISTS PER CYCLE    2
Info: PAIRLISTS ENABLED
Info: MARGIN                 2
Info: HYDROGEN GROUP CUTOFF  2.5
Info: PATCH DIMENSION        15.5
Info: ENERGY OUTPUT STEPS    100000
Info: ENERGY EVALUATION STEPS    100000
Info: OUTPUT ENERGY PRECISION 4
Info: CROSSTERM ENERGY INCLUDED IN DIHEDRAL
Info: TIMING OUTPUT STEPS    1000000
Info: PRESSURE OUTPUT STEPS  100000
Info: ALCHEMICAL FEP ON
Info: FEP CURRENT LAMBDA VALUE     1
Info: FEP COMPARISON LAMBDA VALUE  0.95
Info: FEP INTRA-ALCHEMICAL NON-BONDED INTERACTIONS WILL BE RETAINED
Info: FEP INTRA-ALCHEMICAL BONDED INTERACTIONS WILL BE RETAINED
Info: FEP VDW SHIFTING COEFFICIENT 5
Info: FEP ELEC. ACTIVE FOR ANNIHILATED PARTICLES BETWEEN LAMBDA = 0 AND LAMBDA = 0.5
Info: FEP ELEC. ACTIVE FOR EXNIHILATED PARTICLES BETWEEN LAMBDA = 0.5 AND LAMBDA = 1
Info: FEP VDW ACTIVE FOR ANNIHILATED PARTICLES BETWEEN LAMBDA = 0 AND LAMBDA = 1
Info: FEP VDW ACTIVE FOR EXNIHILATED PARTICLES BETWEEN LAMBDA = 0 AND LAMBDA = 1
Info: FEP BOND ACTIVE FOR ANNIHILATED PARTICLES BETWEEN LAMBDA = 1 AND LAMBDA = 1
Info: FEP BOND ACTIVE FOR EXNIHILATED PARTICLES BETWEEN LAMBDA = 0 AND LAMBDA = 0
Info: LANGEVIN DYNAMICS ACTIVE
Info: LANGEVIN TEMPERATURE   300
Info: LANGEVIN USING BBK INTEGRATOR
Info: LANGEVIN DAMPING COEFFICIENT IS 1 INVERSE PS
Info: LANGEVIN DYNAMICS APPLIED TO HYDROGENS
Info: LANGEVIN PISTON PRESSURE CONTROL ACTIVE
Info:        TARGET PRESSURE IS 1.01325 BAR
Info:     OSCILLATION PERIOD IS 50 FS
Info:             DECAY TIME IS 25 FS
Info:     PISTON TEMPERATURE IS 300 K
Info:       PRESSURE CONTROL IS GROUP-BASED
Info:    INITIAL STRAIN RATE IS 2.29938e-05 2.29938e-05 2.29938e-05
Info:       CELL FLUCTUATION IS ISOTROPIC
Info: PARTICLE MESH EWALD (PME) ACTIVE
Info: PME TOLERANCE               1e-06
Info: PME EWALD COEFFICIENT       0.348832
Info: PME INTERPOLATION ORDER     4
Info: PME GRID DIMENSIONS         36 32 32
Info: PME MAXIMUM GRID SPACING    1
Info: PME CALCULATION WILL BE PERFORMED ON GPU
Info: FULL ELECTROSTATIC EVALUATION FREQUENCY      2
Info: USING VERLET I (r-RESPA) MTS SCHEME.
Info: C1 SPLITTING OF LONG RANGE ELECTROSTATICS
Info: PLACING ATOMS IN PATCHES BY HYDROGEN GROUPS
Info: RIGID BONDS TO HYDROGEN : ALL
Info:         ERROR TOLERANCE : 1e-08
Info:          MAX ITERATIONS : 100
Info: RIGID WATER USING SETTLE ALGORITHM
Info: RANDOM NUMBER SEED     1744042209
Info: USE HYDROGEN BONDS?    NO
Info: Using AMBER format force field!
Info: AMBER PARM FILE        mobley_588781.prmtop
Info: COORDINATE PDB         mobley_588781.pdb
Info: Exclusions will be read from PARM file!
Info: SCNB (VDW SCALING)     2
Info: USING ARITHMETIC MEAN TO COMBINE L-J SIGMA PARAMETERS
Info: BINARY COORDINATES     mobley_588781_equil.coor
Info: SUMMARY OF PARAMETERS:
Info: 7 BONDS
Info: 8 ANGLES
Info:   8 HARMONIC
Info:   0 COSINE-BASED
Info: 9 DIHEDRAL
Info: 0 IMPROPER
Info: 0 CROSSTERM
Info: 0 VDW
Info: 21 VDW_PAIRS
Info: 0 NBTHOLE_PAIRS
Info: To read alchdata from file: mobley_588781.pdb
Info: To read alchflag data from column: 5
Info: STRUCTURE SUMMARY:
Info: 2946 ATOMS
Info: 2946 BONDS
Info: 54 ANGLES
Info: 87 DIHEDRALS
Info: 0 IMPROPERS
Info: 0 CROSSTERMS
Info: 3072 EXCLUSIONS
Info: 2934 RIGID BONDS
Info: ALCH: 0 ATOMS TO DISAPPEAR IN FINAL STATE
Info: ALCH: 30 ATOMS TO APPEAR IN FINAL STATE
Info: 5904 DEGREES OF FREEDOM
Info: 984 HYDROGEN GROUPS
Info: 4 ATOMS IN LARGEST HYDROGEN GROUP
Info: 984 MIGRATION GROUPS
Info: 4 ATOMS IN LARGEST MIGRATION GROUP
Info: TOTAL MASS = 17673.8 amu
Info: TOTAL CHARGE = -9.99831e-05 e
Info: MASS DENSITY = 0.963501 g/cm^3
Info: ATOM DENSITY = 0.0967153 atoms/A^3
Info: ADDED 0 IMPLICIT EXCLUSIONS
Info: NONBONDED TABLE R-SQUARED SPACING: 0.0625
Info: NONBONDED TABLE SIZE: 705 POINTS
Info: REMOVING COM VELOCITY 0.0828764 -0.127095 0.202745
Info: Use 3D box decompostion in PME FFT.
Info: Updated CUDA force table with 4096 elements.
Info: Updated CUDA LJ table with 6 x 6 elements.
Info: Found 29 unique exclusion lists needing 124 bytes
TCL: Running for 1500000 steps
ETITLE: TS BOND ANGLE DIHED IMPRP ELECT VDW BOUNDARY MISC KINETIC TOTAL TEMP POTENTIAL TOTALAVG TEMPAVG PRESSURE GPRESSURE VOLUME PRESSAVG GPRESSAVG
ENERGY: 0 3.6227 11.1382 4.6342 0.0000 -10599.1881 1434.4463 0.0000 0.0000 1808.3220 -7337.0247 308.2619 -9145.3467 -7337.0247 308.2619 269.9728 357.2606 30460.5326 269.9728 357.2606
ENERGY: 300000 1.3811 15.6691 7.1361 0.0000 -10571.1691 1365.3075 0.0000 0.0000 1729.7115 -7451.9637 294.8612 -9181.6752 -7397.0432 300.9320 -380.6113 -328.1526 30430.5848 -21.9820 21.5088
ENERGY: 600000 4.7006 11.2441 6.6853 0.0000 -10730.1458 1464.9524 0.0000 0.0000 1769.6200 -7472.9435 301.6644 -9242.5635 -7414.9649 301.1524 8.7887 146.9346 30173.9010 29.0770 88.0424
ENERGY: 900000 2.1285 9.8700 6.0821 0.0000 -10662.7432 1459.6334 0.0000 0.0000 1707.2304 -7477.7988 291.0289 -9185.0292 -7406.4106 301.2240 131.3275 209.4767 30306.1803 -53.0839 11.0692
ENERGY: 1200000 6.2322 12.9854 4.5935 0.0000 -10683.7544 1400.4525 0.0000 0.0000 1740.3503 -7519.1405 296.6748 -9259.4909 -7407.5851 300.9251 -508.3952 -452.8866 30314.2742 -122.7342 -71.2772
ENERGY: 1500000 1.8788 13.4762 9.8859 0.0000 -10612.8883 1420.4255 0.0000 0.0000 1778.9148 -7388.3072 303.2489 -9167.2219 -7418.8480 300.2336 208.5749 265.7401 29980.1566 -135.1483 -76.0448
TCL: Running FEP window   2: Lambda1 0.95   Lambda2 0.8999999999999999 [dLambda -0.050000000000000044]
TCL: Setting parameter firsttimestep to 0
TCL: Setting parameter alchLambda to 0.95
Info: NONBONDED TABLE R-SQUARED SPACING: 0.0625
Info: NONBONDED TABLE SIZE: 705 POINTS
TCL: Setting parameter alchLambda2 to 0.8999999999999999
Info: NONBONDED TABLE R-SQUARED SPACING: 0.0625
Info: NONBONDED TABLE SIZE: 705 POINTS
TCL: Running for 1500000 steps
ETITLE: TS BOND ANGLE DIHED IMPRP ELECT VDW BOUNDARY MISC KINETIC TOTAL TEMP POTENTIAL TOTALAVG TEMPAVG PRESSURE GPRESSURE VOLUME PRESSAVG GPRESSAVG
ENERGY: 0 1.8788 13.4762 9.8859 0.0000 -10612.3713 1419.5448 0.0000 0.0000 1778.0174 -7389.5681 303.0959 -9167.5855 -7389.5681 303.0959 127.2009 239.7310 29980.1566 127.2009 239.7310
ENERGY: 300000 2.1112 12.7635 4.0447 0.0000 -10663.9838 1438.3188 0.0000 0.0000 1714.9622 -7491.7834 292.3470 -9206.7457 -7417.9236 303.2054 144.9699 180.2849 30069.1869 150.8575 210.5551
ENERGY: 600000 5.9745 10.3612 5.4625 0.0000 -10548.3604 1348.9601 0.0000 0.0000 1776.4739 -7401.1283 302.8328 -9177.6022 -7431.1120 300.6682 -716.6581 -625.1129 30606.5812 -179.1910 -116.5095
ENERGY: 900000 4.1224 10.5583 5.8730 0.0000 -10677.0042 1430.3711 0.0000 0.0000 1745.3124 -7480.7669 297.5207 -9226.0793 -7440.2393 299.3170 -60.3684 48.6840 30156.1646 -131.0632 -67.7269
ENERGY: 1200000 2.1006 10.2340 5.3754 0.0000 -10676.9601 1463.3502 0.0000 0.0000 1761.9832 -7433.9167 300.3626 -9195.8999 -7428.6422 299.4609 434.1617 455.9948 30045.2569 -128.3931 -62.5544
ENERGY: 1500000 1.4313 17.2691 5.6680 0.0000 -10489.6164 1347.7151 0.0000 0.0000 1767.5065 -7350.0264 301.3041 -9117.5329 -7421.9466 299.1765 -294.6070 -240.9805 30495.3788 -196.4150 -138.5212
TCL: Running FEP window   3: Lambda1 0.8999999999999999 Lambda2 0.8499999999999999 [dLambda -0.050000000000000044]
TCL: Setting parameter firsttimestep to 0
TCL: Setting parameter alchLambda to 0.8999999999999999
Info: NONBONDED TABLE R-SQUARED SPACING: 0.0625
Info: NONBONDED TABLE SIZE: 705 POINTS
TCL: Setting parameter alchLambda2 to 0.8499999999999999
Info: NONBONDED TABLE R-SQUARED SPACING: 0.0625
Info: NONBONDED TABLE SIZE: 705 POINTS
TCL: Running for 1500000 steps
ETITLE: TS BOND ANGLE DIHED IMPRP ELECT VDW BOUNDARY MISC KINETIC TOTAL TEMP POTENTIAL TOTALAVG TEMPAVG PRESSURE GPRESSURE VOLUME PRESSAVG GPRESSAVG
ENERGY: 0 1.4313 17.2691 5.6680 0.0000 -10488.9927 1347.8504 0.0000 0.0000 1766.6341 -7350.1398 301.1554 -9116.7739 -7350.1398 301.1554 -330.1975 -256.1633 30495.3788 -330.1975 -256.1633
ENERGY: 300000 2.0089 11.1452 8.0021 0.0000 -10683.0218 1453.4137 0.0000 0.0000 1748.8207 -7459.6311 298.1188 -9208.4518 -7412.1185 301.6248 266.3997 338.5405 30033.9170 104.7733 178.2149
ENERGY: 600000 6.3528 10.6734 6.7265 0.0000 -10398.7069 1299.6748 0.0000 0.0000 1744.0809 -7331.1985 297.3108 -9075.2793 -7403.9822 300.9273 -1085.6763 -1035.3850 31093.4446 -130.9969 -67.8366
ENERGY: 900000 4.7124 13.8183 4.8903 0.0000 -10554.0122 1403.7669 0.0000 0.0000 1745.4502 -7381.3741 297.5442 -9126.8243 -7383.9000 301.2202 43.1801 94.6541 30158.5212 -79.8843 -12.4082
ENERGY: 1200000 3.9490 12.0006 5.3293 0.0000 -10569.3726 1410.4032 0.0000 0.0000 1736.4443 -7401.2461 296.0090 -9137.6904 -7383.8272 301.6006 90.0859 147.5505 30529.6750 -87.3671 -24.6588
ENERGY: 1500000 3.8038 8.4135 6.0610 0.0000 -10663.6633 1450.3423 0.0000 0.0000 1795.5336 -7399.5091 306.0818 -9195.0427 -7386.9533 302.2428 38.7187 48.2748 30356.7369 -27.4056 32.1759
TCL: Running FEP window   4: Lambda1 0.8499999999999999 Lambda2 0.7999999999999998 [dLambda -0.050000000000000044]
TCL: Setting parameter firsttimestep to 0
TCL: Setting parameter alchLambda to 0.8499999999999999
Info: NONBONDED TABLE R-SQUARED SPACING: 0.0625
Info: NONBONDED TABLE SIZE: 705 POINTS
TCL: Setting parameter alchLambda2 to 0.7999999999999998
Info: NONBONDED TABLE R-SQUARED SPACING: 0.0625
Info: NONBONDED TABLE SIZE: 705 POINTS
TCL: Running for 1500000 steps
ETITLE: TS BOND ANGLE DIHED IMPRP ELECT VDW BOUNDARY MISC KINETIC TOTAL TEMP POTENTIAL TOTALAVG TEMPAVG PRESSURE GPRESSURE VOLUME PRESSAVG GPRESSAVG
ENERGY: 0 3.8038 8.4135 6.0610 0.0000 -10663.1577 1450.2821 0.0000 0.0000 1794.7018 -7399.8956 305.9401 -9194.5974 -7399.8956 305.9401 -58.7072 26.3945 30356.7369 -58.7072 26.3945
ENERGY: 300000 2.5198 11.5055 4.2669 0.0000 -10500.3661 1334.4097 0.0000 0.0000 1758.3617 -7389.3025 299.7452 -9147.6642 -7381.0733 305.6387 -763.2995 -705.8672 30474.4945 -503.2957 -432.1071
ENERGY: 600000 2.4317 10.5766 5.6763 0.0000 -10584.4716 1390.3975 0.0000 0.0000 1726.6813 -7448.7081 294.3447 -9175.3894 -7378.5499 303.7349 61.7571 121.3751 30179.4011 -288.9269 -233.3109
ENERGY: 900000 3.2415 10.2527 6.6416 0.0000 -10572.8692 1430.0303 0.0000 0.0000 1769.1825 -7353.5205 301.5898 -9122.7030 -7390.3808 302.0730 581.9334 648.8845 29795.7043 -132.2031 -63.8087
ENERGY: 1200000 4.0730 15.8127 3.2036 0.0000 -10672.2741 1408.3502 0.0000 0.0000 1781.4051 -7459.4296 303.6734 -9240.8346 -7391.4058 302.2971 -176.9889 -150.5650 30420.2177 -106.4614 -49.7030
ENERGY: 1500000 4.5812 6.1987 4.3507 0.0000 -10510.3610 1300.3787 0.0000 0.0000 1776.5172 -7418.3345 302.8402 -9194.8517 -7388.3726 302.7745 -905.6310 -938.7173 30180.0442 -153.3665 -100.3151
TCL: Running FEP window   5: Lambda1 0.7999999999999998 Lambda2 0.7499999999999998 [dLambda -0.050000000000000044]
TCL: Setting parameter firsttimestep to 0
TCL: Setting parameter alchLambda to 0.7999999999999998
Info: NONBONDED TABLE R-SQUARED SPACING: 0.0625
Info: NONBONDED TABLE SIZE: 705 POINTS
TCL: Setting parameter alchLambda2 to 0.7499999999999998
Info: NONBONDED TABLE R-SQUARED SPACING: 0.0625
Info: NONBONDED TABLE SIZE: 705 POINTS
TCL: Running for 1500000 steps
ETITLE: TS BOND ANGLE DIHED IMPRP ELECT VDW BOUNDARY MISC KINETIC TOTAL TEMP POTENTIAL TOTALAVG TEMPAVG PRESSURE GPRESSURE VOLUME PRESSAVG GPRESSAVG
ENERGY: 0 4.5812 6.1987 4.3507 0.0000 -10510.4036 1301.1795 0.0000 0.0000 1775.6565 -7418.4370 302.6934 -9194.0935 -7418.4370 302.6934 -1038.1982 -945.6191 30180.0442 -1038.1982 -945.6191
ENERGY: 300000 3.7086 15.3820 6.3690 0.0000 -10541.7463 1379.1011 0.0000 0.0000 1752.6408 -7384.5449 298.7700 -9137.1857 -7412.6570 301.3182 -61.7999 -25.8043 30100.9643 -206.9879 -157.8966
ENERGY: 600000 2.5091 9.7731 5.3208 0.0000 -10523.3987 1369.2615 0.0000 0.0000 1834.8466 -7301.6875 312.7835 -9136.5342 -7372.3782 302.1034 -60.7065 -25.4951 30184.7152 -340.5919 -275.2589
ENERGY: 900000 4.2538 7.4325 4.8516 0.0000 -10524.1849 1365.7799 0.0000 0.0000 1809.0592 -7332.8079 308.3875 -9141.8671 -7378.2002 301.7550 -448.8967 -371.1672 30296.3730 -213.6487 -147.8833
ENERGY: 1200000 5.1313 9.7920 8.2652 0.0000 -10682.7067 1459.7492 0.0000 0.0000 1762.7259 -7437.0431 300.4892 -9199.7690 -7380.4706 301.8227 143.3143 169.9890 30024.6870 -165.1627 -103.9220
ENERGY: 1500000 9.0563 12.0906 4.9463 0.0000 -10655.8826 1470.6215 0.0000 0.0000 1825.8381 -7333.3298 311.2478 -9159.1679 -7384.0040 302.1332 430.9961 541.4032 29732.8720 -114.9362 -49.6726
TCL: Running FEP window   6: Lambda1 0.7499999999999998 Lambda2 0.6999999999999997 [dLambda -0.050000000000000044]
TCL: Setting parameter firsttimestep to 0
TCL: Setting parameter alchLambda to 0.7499999999999998
Info: NONBONDED TABLE R-SQUARED SPACING: 0.0625
Info: NONBONDED TABLE SIZE: 705 POINTS
TCL: Setting parameter alchLambda2 to 0.6999999999999997
Info: NONBONDED TABLE R-SQUARED SPACING: 0.0625
Info: NONBONDED TABLE SIZE: 705 POINTS
TCL: Running for 1500000 steps
ETITLE: TS BOND ANGLE DIHED IMPRP ELECT VDW BOUNDARY MISC KINETIC TOTAL TEMP POTENTIAL TOTALAVG TEMPAVG PRESSURE GPRESSURE VOLUME PRESSAVG GPRESSAVG
ENERGY: 0 9.0563 12.0906 4.9463 0.0000 -10655.7952 1470.8541 0.0000 0.0000 1824.9406 -7333.9072 311.0948 -9158.8478 -7333.9072 311.0948 448.4182 525.4021 29732.8720 448.4182 525.4021
ENERGY: 300000 9.2177 10.3221 3.3000 0.0000 -10615.7176 1461.9023 0.0000 0.0000 1783.1314 -7347.8441 303.9677 -9130.9755 -7376.3728 304.3481 125.5010 208.4002 30475.7114 -94.8205 -20.6028
ENERGY: 600000 2.8982 13.4339 6.4402 0.0000 -10538.1504 1367.0745 0.0000 0.0000 1812.3963 -7335.9073 308.9564 -9148.3036 -7392.7279 303.4406 -498.7442 -425.2995 30494.8758 -251.1427 -188.8821
ENERGY: 900000 4.6618 13.6788 5.4670 0.0000 -10576.9248 1411.7642 0.0000 0.0000 1734.5719 -7406.7811 295.6898 -9141.3530 -7378.9668 301.8043 -290.7212 -183.6405 30249.1912 -149.3789 -81.6356
ENERGY: 1200000 4.1792 11.7576 5.3992 0.0000 -10642.7299 1455.2506 0.0000 0.0000 1774.5681 -7391.5752 302.5079 -9166.1433 -7373.0803 303.3945 100.4574 154.4402 30622.6346 -68.0872 4.4554
ENERGY: 1500000 3.7756 11.3797 6.5303 0.0000 -10712.8291 1485.1388 0.0000 0.0000 1727.2396 -7478.7652 294.4399 -9206.0047 -7380.0657 303.2220 119.6076 242.4340 30595.6162 -50.4477 22.0703
TCL: Running FEP window   7: Lambda1 0.6999999999999997 Lambda2 0.6499999999999997 [dLambda -0.050000000000000044]
TCL: Setting parameter firsttimestep to 0
TCL: Setting parameter alchLambda to 0.6999999999999997
Info: NONBONDED TABLE R-SQUARED SPACING: 0.0625
Info: NONBONDED TABLE SIZE: 705 POINTS
TCL: Setting parameter alchLambda2 to 0.6499999999999997
Info: NONBONDED TABLE R-SQUARED SPACING: 0.0625
Info: NONBONDED TABLE SIZE: 705 POINTS
TCL: Running for 1500000 steps
ETITLE: TS BOND ANGLE DIHED IMPRP ELECT VDW BOUNDARY MISC KINETIC TOTAL TEMP POTENTIAL TOTALAVG TEMPAVG PRESSURE GPRESSURE VOLUME PRESSAVG GPRESSAVG
ENERGY: 0 3.7756 11.3797 6.5303 0.0000 -10712.6549 1484.7220 0.0000 0.0000 1726.3586 -7479.8888 294.2897 -9206.2474 -7479.8888 294.2897 127.5085 223.8686 30595.6162 127.5085 223.8686
ENERGY: 300000 6.4517 10.8858 7.2631 0.0000 -10633.6872 1416.1546 0.0000 0.0000 1744.0605 -7448.8715 297.3073 -9192.9321 -7430.5856 296.5772 -49.0943 74.0541 30275.0543 -61.4130 60.3138
ENERGY: 600000 2.7048 9.3146 4.1903 0.0000 -10679.7569 1479.3646 0.0000 0.0000 1758.5172 -7425.6653 299.7717 -9184.1825 -7426.8512 297.9551 471.3883 519.1291 29975.4579 79.8619 169.9239
ENERGY: 900000 6.5686 13.1359 4.9567 0.0000 -10522.8210 1342.0094 0.0000 0.0000 1728.4021 -7427.7482 294.6380 -9156.1503 -7424.8317 297.9236 -1074.0520 -962.9316 30754.9535 -111.7563 -19.7140
ENERGY: 1200000 5.2185 10.2875 5.3594 0.0000 -10746.2063 1536.5086 0.0000 0.0000 1692.4074 -7496.4249 288.5021 -9188.8323 -7415.2920 298.1396 889.9140 926.6601 29745.7326 -20.1252 67.9794
ENERGY: 1500000 5.2534 10.8162 8.9473 0.0000 -10681.9626 1467.5833 0.0000 0.0000 1727.8071 -7461.5553 294.5366 -9189.3624 -7417.0087 298.6616 290.7931 314.7097 30004.7172 -27.7723 53.1726
TCL: Running FEP window   8: Lambda1 0.6499999999999997 Lambda2 0.5999999999999996 [dLambda -0.050000000000000044]
TCL: Setting parameter firsttimestep to 0
TCL: Setting parameter alchLambda to 0.6499999999999997
Info: NONBONDED TABLE R-SQUARED SPACING: 0.0625
Info: NONBONDED TABLE SIZE: 705 POINTS
TCL: Setting parameter alchLambda2 to 0.5999999999999996
Info: NONBONDED TABLE R-SQUARED SPACING: 0.0625
Info: NONBONDED TABLE SIZE: 705 POINTS
TCL: Running for 1500000 steps
ETITLE: TS BOND ANGLE DIHED IMPRP ELECT VDW BOUNDARY MISC KINETIC TOTAL TEMP POTENTIAL TOTALAVG TEMPAVG PRESSURE GPRESSURE VOLUME PRESSAVG GPRESSAVG
ENERGY: 0 5.2534 10.8162 8.9473 0.0000 -10682.0518 1468.6087 0.0000 0.0000 1726.9469 -7461.4793 294.3900 -9188.4262 -7461.4793 294.3900 233.3306 310.4053 30004.7172 233.3306 310.4053
ENERGY: 300000 3.3148 11.8379 4.3865 0.0000 -10584.1058 1396.6573 0.0000 0.0000 1728.4252 -7439.4843 294.6420 -9167.9094 -7404.8699 299.9423 -214.6959 -148.7943 30187.1804 -276.7005 -225.1292
ENERGY: 600000 4.0348 11.9109 4.4870 0.0000 -10795.1937 1499.6503 0.0000 0.0000 1746.5740 -7528.5367 297.7358 -9275.1108 -7424.3076 299.0479 443.9841 560.0936 29844.9560 -110.8754 -33.2928
ENERGY: 900000 3.4559 9.9062 9.7518 0.0000 -10592.5924 1449.7214 0.0000 0.0000 1739.8328 -7379.9244 296.5866 -9119.7572 -7407.7857 299.9944 156.3840 251.1764 30518.8557 -112.4673 -44.7585
ENERGY: 1200000 5.1453 11.8948 5.0919 0.0000 -10359.5002 1278.6322 0.0000 0.0000 1769.8739 -7288.8620 301.7077 -9058.7359 -7404.9635 299.6563 -1157.2150 -1072.3364 30777.2420 -307.2484 -230.1758
ENERGY: 1500000 4.3438 11.2678 4.4753 0.0000 -10635.7957 1453.8722 0.0000 0.0000 1745.1583 -7416.6782 297.4945 -9161.8366 -7397.0346 299.5935 322.7089 386.1166 30166.6804 -217.5909 -137.7437
TCL: Running FEP window   9: Lambda1 0.5999999999999996 Lambda2 0.5499999999999996 [dLambda -0.050000000000000044]
TCL: Setting parameter firsttimestep to 0
TCL: Setting parameter alchLambda to 0.5999999999999996
Info: NONBONDED TABLE R-SQUARED SPACING: 0.0625
Info: NONBONDED TABLE SIZE: 705 POINTS
TCL: Setting parameter alchLambda2 to 0.5499999999999996
Info: NONBONDED TABLE R-SQUARED SPACING: 0.0625
Info: NONBONDED TABLE SIZE: 705 POINTS
TCL: Running for 1500000 steps
ETITLE: TS BOND ANGLE DIHED IMPRP ELECT VDW BOUNDARY MISC KINETIC TOTAL TEMP POTENTIAL TOTALAVG TEMPAVG PRESSURE GPRESSURE VOLUME PRESSAVG GPRESSAVG
ENERGY: 0 4.3438 11.2678 4.4753 0.0000 -10635.3589 1452.9469 0.0000 0.0000 1744.3124 -7418.0127 297.3502 -9162.3251 -7418.0127 297.3502 273.5686 365.9337 30166.6804 273.5686 365.9337
ENERGY: 300000 3.0038 12.8101 4.5819 0.0000 -10581.7783 1368.9782 0.0000 0.0000 1790.3577 -7402.0465 305.1995 -9192.4042 -7357.8636 303.0903 -562.1617 -450.6744 29939.9345 -103.8161 -21.1658
ENERGY: 600000 5.7779 13.3433 6.8909 0.0000 -10528.6570 1422.4300 0.0000 0.0000 1710.8899 -7369.3249 291.6528 -9080.2149 -7357.6466 302.0715 -203.0819 -131.2027 30959.4700 -132.4492 -65.7682
ENERGY: 900000 2.2413 18.6265 5.2087 0.0000 -10740.2847 1480.4939 0.0000 0.0000 1815.6339 -7418.0805 309.5083 -9233.7144 -7375.5772 303.4498 594.9346 730.8203 29542.7599 22.5110 94.6393
ENERGY: 1200000 2.6162 18.4336 5.3454 0.0000 -10552.6105 1383.5969 0.0000 0.0000 1771.0711 -7371.5473 301.9118 -9142.6183 -7371.3021 302.8705 -706.2451 -611.6652 30816.4838 -124.9618 -54.4037
ENERGY: 1500000 5.5670 11.5146 6.3114 0.0000 -10738.0645 1495.1219 0.0000 0.0000 1752.1218 -7467.4279 298.6815 -9219.5497 -7381.9001 302.2160 372.3822 388.5774 30108.2021 -43.4731 18.1173
TCL: Running FEP window  10: Lambda1 0.5499999999999996 Lambda2 0.4999999999999996 [dLambda -0.04999999999999999]
TCL: Setting parameter firsttimestep to 0
TCL: Setting parameter alchLambda to 0.5499999999999996
Info: NONBONDED TABLE R-SQUARED SPACING: 0.0625
Info: NONBONDED TABLE SIZE: 705 POINTS
TCL: Setting parameter alchLambda2 to 0.4999999999999996
Info: NONBONDED TABLE R-SQUARED SPACING: 0.0625
Info: NONBONDED TABLE SIZE: 705 POINTS
TCL: Running for 1500000 steps
ETITLE: TS BOND ANGLE DIHED IMPRP ELECT VDW BOUNDARY MISC KINETIC TOTAL TEMP POTENTIAL TOTALAVG TEMPAVG PRESSURE GPRESSURE VOLUME PRESSAVG GPRESSAVG
ENERGY: 0 5.5670 11.5146 6.3114 0.0000 -10738.2425 1495.4156 0.0000 0.0000 1751.2171 -7468.2168 298.5273 -9219.4339 -7468.2168 298.5273 296.5783 381.1294 30108.2021 296.5783 381.1294
ENERGY: 300000 4.3361 10.1193 5.1130 0.0000 -10641.8775 1429.4683 0.0000 0.0000 1828.0261 -7364.8148 311.6208 -9192.8409 -7430.2842 298.9585 -126.4670 -61.6534 30459.8776 141.1279 215.7335
ENERGY: 600000 5.6494 15.1549 5.0310 0.0000 -10575.2825 1437.2464 0.0000 0.0000 1808.5753 -7303.6255 308.3050 -9112.2008 -7408.4498 299.7693 -189.3198 -59.4873 30781.7831 245.5508 319.3737
ENERGY: 900000 2.7095 11.0874 5.7685 0.0000 -10575.3734 1398.0082 0.0000 0.0000 1752.4011 -7405.3988 298.7291 -9157.7998 -7386.0093 300.4202 -233.6995 -197.7345 30102.6469 147.3066 208.5040
ENERGY: 1200000 2.1187 8.7634 6.5340 0.0000 -10745.1535 1530.0114 0.0000 0.0000 1761.4881 -7436.2379 300.2782 -9197.7260 -7388.4464 300.4165 701.2034 767.1444 30250.7879 159.8993 218.2091
ENERGY: 1500000 2.8500 11.0789 6.0729 0.0000 -10600.4565 1372.3292 0.0000 0.0000 1732.6054 -7475.5201 295.3546 -9208.1255 -7389.5145 300.1973 -809.3534 -713.2897 30487.7355 168.1982 229.3375
TCL: Running FEP window  11: Lambda1 0.4999999999999996 Lambda2 0.4499999999999996 [dLambda -0.04999999999999999]
TCL: Setting parameter firsttimestep to 0
TCL: Setting parameter alchLambda to 0.4999999999999996
Info: NONBONDED TABLE R-SQUARED SPACING: 0.0625
Info: NONBONDED TABLE SIZE: 705 POINTS
TCL: Setting parameter alchLambda2 to 0.4499999999999996
Info: NONBONDED TABLE R-SQUARED SPACING: 0.0625
Info: NONBONDED TABLE SIZE: 705 POINTS
TCL: Running for 1500000 steps
ETITLE: TS BOND ANGLE DIHED IMPRP ELECT VDW BOUNDARY MISC KINETIC TOTAL TEMP POTENTIAL TOTALAVG TEMPAVG PRESSURE GPRESSURE VOLUME PRESSAVG GPRESSAVG
ENERGY: 0 2.8500 11.0789 6.0729 0.0000 -10600.8014 1372.8812 0.0000 0.0000 1731.7317 -7476.1867 295.2056 -9207.9185 -7476.1867 295.2056 -802.0922 -717.5171 30487.7355 -802.0922 -717.5171
ENERGY: 300000 4.1541 14.8101 3.9412 0.0000 -10621.0325 1427.1298 0.0000 0.0000 1731.4608 -7439.5364 295.1595 -9170.9973 -7432.6249 299.7517 -147.7214 -62.4137 30516.2310 -172.6080 -88.2160
ENERGY: 600000 4.9242 11.7073 7.0576 0.0000 -10608.1188 1453.6601 0.0000 0.0000 1707.1009 -7423.6687 291.0069 -9130.7696 -7425.9187 299.0860 474.9877 569.7627 29750.9401 48.6677 106.1718
ENERGY: 900000 3.4210 11.7451 6.1614 0.0000 -10603.2016 1431.4139 0.0000 0.0000 1778.5668 -7371.8934 303.1895 -9150.4603 -7417.1075 299.7169 -26.1488 104.5659 30265.9481 155.6656 217.7109
ENERGY: 1200000 2.1297 10.8341 6.3717 0.0000 -10655.7125 1451.6793 0.0000 0.0000 1775.4207 -7409.2771 302.6532 -9184.6978 -7418.9135 299.2700 127.1813 136.3948 30236.1828 142.4482 204.1703
ENERGY: 1500000 6.9547 9.0511 4.6501 0.0000 -10531.4284 1403.1341 0.0000 0.0000 1765.8112 -7341.8272 301.0151 -9107.6385 -7412.9918 299.5509 -12.6000 31.6460 30433.7406 103.8466 168.8305
TCL: Running FEP window  12: Lambda1 0.4499999999999996 Lambda2 0.39999999999999963 [dLambda -0.04999999999999999]
TCL: Setting parameter firsttimestep to 0
TCL: Setting parameter alchLambda to 0.4499999999999996
Info: NONBONDED TABLE R-SQUARED SPACING: 0.0625
Info: NONBONDED TABLE SIZE: 705 POINTS
TCL: Setting parameter alchLambda2 to 0.39999999999999963
Info: NONBONDED TABLE R-SQUARED SPACING: 0.0625
Info: NONBONDED TABLE SIZE: 705 POINTS
TCL: Running for 1500000 steps
ETITLE: TS BOND ANGLE DIHED IMPRP ELECT VDW BOUNDARY MISC KINETIC TOTAL TEMP POTENTIAL TOTALAVG TEMPAVG PRESSURE GPRESSURE VOLUME PRESSAVG GPRESSAVG
ENERGY: 0 6.9547 9.0511 4.6502 0.0000 -10531.4296 1403.7944 0.0000 0.0000 1764.9689 -7342.0104 300.8715 -9106.9793 -7342.0104 300.8715 -43.5126 30.6103 30433.7406 -43.5126 30.6103
ENERGY: 300000 3.0217 7.8739 2.4800 0.0000 -10621.8222 1453.9364 0.0000 0.0000 1691.4523 -7463.0579 288.3393 -9154.5102 -7398.5341 299.3444 -100.6061 -28.0371 30666.3629 -72.7449 -12.1521
ENERGY: 600000 2.9891 10.4145 4.6596 0.0000 -10620.5583 1448.5823 0.0000 0.0000 1794.1426 -7359.7703 305.8447 -9153.9129 -7380.7905 301.8588 80.0962 128.8135 30253.6984 89.4094 134.2962
ENERGY: 900000 2.4698 12.9961 6.0299 0.0000 -10575.5236 1396.5293 0.0000 0.0000 1779.0702 -7378.4282 303.2754 -9157.4984 -7377.8715 301.5922 -327.9962 -257.9147 30592.6676 -8.7806 44.3014
ENERGY: 1200000 2.6064 11.2146 7.1817 0.0000 -10621.1094 1403.0015 0.0000 0.0000 1699.3157 -7497.7896 289.6797 -9197.1053 -7391.5697 301.8355 -296.3085 -288.9871 30028.5000 -0.6792 45.2703
ENERGY: 1500000 1.1382 9.0541 4.7631 0.0000 -10747.4997 1499.8705 0.0000 0.0000 1807.7378 -7424.9359 308.1623 -9232.6736 -7394.3599 301.5204 802.1564 776.5002 29646.3724 46.7094 90.1837
TCL: Running FEP window  13: Lambda1 0.39999999999999963 Lambda2 0.34999999999999964 [dLambda -0.04999999999999999]
TCL: Setting parameter firsttimestep to 0
TCL: Setting parameter alchLambda to 0.39999999999999963
Info: NONBONDED TABLE R-SQUARED SPACING: 0.0625
Info: NONBONDED TABLE SIZE: 705 POINTS
TCL: Setting parameter alchLambda2 to 0.34999999999999964
Info: NONBONDED TABLE R-SQUARED SPACING: 0.0625
Info: NONBONDED TABLE SIZE: 705 POINTS
TCL: Running for 1500000 steps
ETITLE: TS BOND ANGLE DIHED IMPRP ELECT VDW BOUNDARY MISC KINETIC TOTAL TEMP POTENTIAL TOTALAVG TEMPAVG PRESSURE GPRESSURE VOLUME PRESSAVG GPRESSAVG
ENERGY: 0 1.1382 9.0541 4.7631 0.0000 -10747.4983 1500.6388 0.0000 0.0000 1806.9004 -7425.0037 308.0195 -9231.9040 -7425.0037 308.0195 706.1015 774.7590 29646.3724 706.1015 774.7590
ENERGY: 300000 2.0320 8.9494 8.2643 0.0000 -10615.3970 1441.7849 0.0000 0.0000 1802.6766 -7351.6898 307.2995 -9154.3665 -7384.1914 303.3576 167.1377 167.3588 30297.7257 6.6056 54.2248
ENERGY: 600000 5.6284 20.0141 7.6641 0.0000 -10680.2560 1468.4648 0.0000 0.0000 1801.3258 -7377.1588 307.0692 -9178.4846 -7370.1309 304.4069 89.7293 94.5766 30329.8048 82.3381 130.1409
ENERGY: 900000 1.9263 10.7121 8.2617 0.0000 -10597.0917 1426.7748 0.0000 0.0000 1738.2897 -7411.1271 296.3236 -9149.4169 -7376.3908 302.4957 -71.3852 3.9305 30208.2312 39.5551 93.3384
ENERGY: 1200000 4.9512 12.2566 3.3172 0.0000 -10571.7799 1389.9574 0.0000 0.0000 1827.6348 -7333.6627 311.5541 -9161.2975 -7374.8270 302.3390 -307.4606 -262.5403 30046.6497 -26.6223 25.2253
ENERGY: 1500000 7.2170 10.4383 4.0592 0.0000 -10644.9616 1403.9624 0.0000 0.0000 1760.8167 -7458.4682 300.1637 -9219.2848 -7383.4625 302.0249 -820.9003 -745.7875 30368.0451 -115.1806 -61.7286
TCL: Running FEP window  14: Lambda1 0.34999999999999964 Lambda2 0.29999999999999966 [dLambda -0.04999999999999999]
TCL: Setting parameter firsttimestep to 0
TCL: Setting parameter alchLambda to 0.34999999999999964
Info: NONBONDED TABLE R-SQUARED SPACING: 0.0625
Info: NONBONDED TABLE SIZE: 705 POINTS
TCL: Setting parameter alchLambda2 to 0.29999999999999966
Info: NONBONDED TABLE R-SQUARED SPACING: 0.0625
Info: NONBONDED TABLE SIZE: 705 POINTS
TCL: Running for 1500000 steps
ETITLE: TS BOND ANGLE DIHED IMPRP ELECT VDW BOUNDARY MISC KINETIC TOTAL TEMP POTENTIAL TOTALAVG TEMPAVG PRESSURE GPRESSURE VOLUME PRESSAVG GPRESSAVG
ENERGY: 0 7.2170 10.4383 4.0592 0.0000 -10644.9620 1404.2499 0.0000 0.0000 1759.9025 -7459.0950 300.0079 -9218.9975 -7459.0950 300.0079 -829.6062 -748.8228 30368.0451 -829.6062 -748.8228
ENERGY: 300000 5.6274 11.4402 4.7939 0.0000 -10653.3090 1431.2383 0.0000 0.0000 1726.5039 -7473.7054 294.3145 -9200.2092 -7432.6204 297.6110 -409.5965 -357.4640 30194.7897 -417.2833 -353.4755
ENERGY: 600000 3.1522 11.0763 6.1521 0.0000 -10562.4755 1433.6670 0.0000 0.0000 1791.6223 -7316.8056 305.4151 -9108.4279 -7378.1312 302.1843 177.1029 292.5083 30071.4084 -339.3454 -283.2462
ENERGY: 900000 6.5423 8.8176 6.0748 0.0000 -10731.9752 1508.4276 0.0000 0.0000 1719.5675 -7482.5454 293.1320 -9202.1129 -7403.9174 299.7453 497.5019 556.4703 30114.1919 -18.0734 32.6508
ENERGY: 1200000 2.6160 10.1871 9.9945 0.0000 -10685.2400 1472.8039 0.0000 0.0000 1748.8612 -7440.7773 298.1257 -9189.6385 -7400.4867 300.6766 551.7995 585.7602 29665.1300 106.2592 157.6984
ENERGY: 1500000 5.4670 15.0706 5.8664 0.0000 -10537.6443 1381.0903 0.0000 0.0000 1741.5103 -7388.6397 296.8726 -9130.1500 -7394.1069 300.2779 -393.5915 -283.5648 30515.9561 67.0462 126.1132
TCL: Running FEP window  15: Lambda1 0.29999999999999966 Lambda2 0.24999999999999967 [dLambda -0.04999999999999999]
TCL: Setting parameter firsttimestep to 0
TCL: Setting parameter alchLambda to 0.29999999999999966
Info: NONBONDED TABLE R-SQUARED SPACING: 0.0625
Info: NONBONDED TABLE SIZE: 705 POINTS
TCL: Setting parameter alchLambda2 to 0.24999999999999967
Info: NONBONDED TABLE R-SQUARED SPACING: 0.0625
Info: NONBONDED TABLE SIZE: 705 POINTS
TCL: Running for 1500000 steps
ETITLE: TS BOND ANGLE DIHED IMPRP ELECT VDW BOUNDARY MISC KINETIC TOTAL TEMP POTENTIAL TOTALAVG TEMPAVG PRESSURE GPRESSURE VOLUME PRESSAVG GPRESSAVG
ENERGY: 0 5.4670 15.0706 5.8664 0.0000 -10537.6418 1381.2337 0.0000 0.0000 1740.6504 -7389.3537 296.7260 -9130.0041 -7389.3537 296.7260 -375.7637 -288.0239 30515.9561 -375.7637 -288.0239
ENERGY: 300000 4.8155 9.2103 5.3127 0.0000 -10717.3832 1474.4160 0.0000 0.0000 1686.7636 -7536.8651 287.5400 -9223.6287 -7452.7856 293.5258 153.0230 251.2237 29859.9753 -307.8772 -256.3178
ENERGY: 600000 2.8383 9.9729 4.5053 0.0000 -10556.5557 1470.7672 0.0000 0.0000 1778.2978 -7290.1743 303.1437 -9068.4720 -7402.6653 297.3361 770.8427 809.7360 30066.9572 255.2988 307.7941
ENERGY: 900000 1.7581 11.0281 7.8234 0.0000 -10500.6363 1425.6965 0.0000 0.0000 1708.5651 -7345.7650 291.2565 -9054.3301 -7393.4755 298.0994 201.9727 245.7950 30345.4206 142.9186 192.5913
ENERGY: 1200000 4.0105 10.7383 6.7195 0.0000 -10390.5885 1318.7619 0.0000 0.0000 1734.4193 -7315.9391 295.6638 -9050.3584 -7381.1441 298.8826 -771.1300 -719.7611 30775.5689 110.8405 158.6219
ENERGY: 1500000 3.2122 13.7068 7.6755 0.0000 -10535.6160 1408.8535 0.0000 0.0000 1756.7730 -7345.3950 299.4744 -9102.1680 -7375.5576 299.0677 26.9977 88.7690 30167.8519 -57.5559 -3.3951
TCL: Running FEP window  16: Lambda1 0.24999999999999967 Lambda2 0.19999999999999968 [dLambda -0.04999999999999999]
TCL: Setting parameter firsttimestep to 0
TCL: Setting parameter alchLambda to 0.24999999999999967
Info: NONBONDED TABLE R-SQUARED SPACING: 0.0625
Info: NONBONDED TABLE SIZE: 705 POINTS
TCL: Setting parameter alchLambda2 to 0.19999999999999968
Info: NONBONDED TABLE R-SQUARED SPACING: 0.0625
Info: NONBONDED TABLE SIZE: 705 POINTS
TCL: Running for 1500000 steps
ETITLE: TS BOND ANGLE DIHED IMPRP ELECT VDW BOUNDARY MISC KINETIC TOTAL TEMP POTENTIAL TOTALAVG TEMPAVG PRESSURE GPRESSURE VOLUME PRESSAVG GPRESSAVG
ENERGY: 0 3.2122 13.7068 7.6755 0.0000 -10535.6163 1408.0123 0.0000 0.0000 1755.9442 -7347.0653 299.3331 -9103.0095 -7347.0653 299.3331 -17.2121 76.9537 30167.8519 -17.2121 76.9537
ENERGY: 300000 2.1703 7.1149 5.5918 0.0000 -10579.3876 1433.1051 0.0000 0.0000 1760.6110 -7370.7945 300.1286 -9131.4055 -7391.9097 298.7778 281.1520 347.5144 30008.3077 346.6635 416.7626
ENERGY: 600000 3.5805 14.6888 7.5443 0.0000 -10608.0534 1456.5241 0.0000 0.0000 1716.3430 -7409.3727 292.5824 -9125.7157 -7414.9749 298.3338 403.1696 496.5281 29637.9741 207.2762 280.5439
ENERGY: 900000 4.7958 11.2911 2.7991 0.0000 -10573.7005 1402.6230 0.0000 0.0000 1773.1931 -7378.9984 302.2735 -9152.1915 -7413.3937 298.7194 -420.2551 -336.9485 30210.5653 -2.9481 64.9381
ENERGY: 1200000 6.9545 8.5972 4.0907 0.0000 -10581.9157 1457.9999 0.0000 0.0000 1819.4100 -7284.8635 310.1520 -9104.2735 -7404.5863 299.5322 317.6098 362.1264 30470.6777 -92.0489 -26.2871
ENERGY: 1500000 4.1443 14.6421 3.7376 0.0000 -10567.4496 1409.9794 0.0000 0.0000 1756.2276 -7378.7186 299.3814 -9134.9462 -7400.9109 299.8180 10.6750 83.7706 30146.7520 -48.7910 20.1125
TCL: Running FEP window  17: Lambda1 0.19999999999999968 Lambda2 0.1499999999999997 [dLambda -0.04999999999999999]
TCL: Setting parameter firsttimestep to 0
TCL: Setting parameter alchLambda to 0.19999999999999968
Info: NONBONDED TABLE R-SQUARED SPACING: 0.0625
Info: NONBONDED TABLE SIZE: 705 POINTS
TCL: Setting parameter alchLambda2 to 0.1499999999999997
Info: NONBONDED TABLE R-SQUARED SPACING: 0.0625
Info: NONBONDED TABLE SIZE: 705 POINTS
TCL: Running for 1500000 steps
ETITLE: TS BOND ANGLE DIHED IMPRP ELECT VDW BOUNDARY MISC KINETIC TOTAL TEMP POTENTIAL TOTALAVG TEMPAVG PRESSURE GPRESSURE VOLUME PRESSAVG GPRESSAVG
ENERGY: 0 4.1443 14.6421 3.7376 0.0000 -10567.4485 1409.6373 0.0000 0.0000 1755.3708 -7379.9165 299.2354 -9135.2873 -7379.9165 299.2354 -10.2865 75.5001 30146.7520 -10.2865 75.5001
ENERGY: 300000 3.9588 13.2736 4.6533 0.0000 -10564.6133 1361.3609 0.0000 0.0000 1736.4305 -7444.9362 296.0066 -9181.3667 -7373.9193 300.0326 -703.0792 -711.5708 30436.0652 -443.9201 -373.8050
ENERGY: 600000 2.5888 11.6182 2.9586 0.0000 -10806.1876 1517.3965 0.0000 0.0000 1743.9012 -7527.7243 297.2802 -9271.6255 -7406.8268 298.2459 507.9816 616.5173 29734.7947 -270.2867 -201.5398
ENERGY: 900000 6.1922 6.4315 6.7543 0.0000 -10541.3532 1349.0195 0.0000 0.0000 1765.7873 -7407.1684 301.0110 -9172.9557 -7413.7914 299.2106 -726.0662 -629.8621 30161.3306 -285.9081 -219.8354
ENERGY: 1200000 2.6092 13.9994 7.2888 0.0000 -10692.4334 1461.4797 0.0000 0.0000 1772.9582 -7434.0982 302.2335 -9207.0564 -7414.2098 299.5162 229.4036 270.4510 29789.3078 -92.6416 -29.1086
ENERGY: 1500000 5.3862 12.9589 6.0420 0.0000 -10706.1368 1496.4153 0.0000 0.0000 1759.7267 -7425.6077 299.9779 -9185.3344 -7409.8231 298.8133 480.8326 528.9303 30347.1668 -80.2464 -18.5776
TCL: Running FEP window  18: Lambda1 0.1499999999999997 Lambda2 0.09999999999999969 [dLambda -0.05 ]
TCL: Setting parameter firsttimestep to 0
TCL: Setting parameter alchLambda to 0.1499999999999997
Info: NONBONDED TABLE R-SQUARED SPACING: 0.0625
Info: NONBONDED TABLE SIZE: 705 POINTS
TCL: Setting parameter alchLambda2 to 0.09999999999999969
Info: NONBONDED TABLE R-SQUARED SPACING: 0.0625
Info: NONBONDED TABLE SIZE: 705 POINTS
TCL: Running for 1500000 steps
ETITLE: TS BOND ANGLE DIHED IMPRP ELECT VDW BOUNDARY MISC KINETIC TOTAL TEMP POTENTIAL TOTALAVG TEMPAVG PRESSURE GPRESSURE VOLUME PRESSAVG GPRESSAVG
ENERGY: 0 5.3862 12.9589 6.0420 0.0000 -10706.1370 1497.2681 0.0000 0.0000 1758.8701 -7425.6118 299.8319 -9184.4819 -7425.6118 299.8319 456.0035 531.8234 30347.1668 456.0035 531.8234
ENERGY: 300000 3.0917 13.5948 3.3648 0.0000 -10640.0895 1460.3601 0.0000 0.0000 1746.9632 -7412.7149 297.8021 -9159.6781 -7430.8348 298.4847 137.1988 205.1733 29956.2819 148.7801 202.9595
ENERGY: 600000 6.0261 8.9537 6.5693 0.0000 -10415.6083 1329.5680 0.0000 0.0000 1758.2604 -7306.2308 299.7279 -9064.4912 -7404.9970 299.6469 -671.1498 -617.8653 30246.0528 103.4888 149.3491
ENERGY: 900000 3.6749 9.0917 5.2831 0.0000 -10629.3019 1421.7860 0.0000 0.0000 1765.7110 -7423.7552 300.9980 -9189.4663 -7404.7389 299.5302 -4.0439 22.0549 29907.0523 76.1645 127.9628
ENERGY: 1200000 1.7054 9.3004 6.5691 0.0000 -10549.6528 1404.0955 0.0000 0.0000 1810.8283 -7317.1541 308.6891 -9127.9824 -7387.0301 301.2699 -4.1862 -18.2105 30207.7376 49.1855 96.7736
ENERGY: 1500000 5.3319 11.3109 7.3539 0.0000 -10720.2737 1529.7511 0.0000 0.0000 1719.2378 -7447.2881 293.0758 -9166.5259 -7399.2543 299.8970 322.4008 406.1180 30661.1588 41.5678 90.2341
TCL: Running FEP window  19: Lambda1 0.09999999999999969 Lambda2 0.049999999999999684 [dLambda -0.05 ]
TCL: Setting parameter firsttimestep to 0
TCL: Setting parameter alchLambda to 0.09999999999999969
Info: NONBONDED TABLE R-SQUARED SPACING: 0.0625
Info: NONBONDED TABLE SIZE: 705 POINTS
TCL: Setting parameter alchLambda2 to 0.049999999999999684
Info: NONBONDED TABLE R-SQUARED SPACING: 0.0625
Info: NONBONDED TABLE SIZE: 705 POINTS
TCL: Running for 1500000 steps
ETITLE: TS BOND ANGLE DIHED IMPRP ELECT VDW BOUNDARY MISC KINETIC TOTAL TEMP POTENTIAL TOTALAVG TEMPAVG PRESSURE GPRESSURE VOLUME PRESSAVG GPRESSAVG
ENERGY: 0 5.3319 11.3109 7.3539 0.0000 -10720.2732 1530.3060 0.0000 0.0000 1718.3570 -7447.6135 292.9257 -9165.9706 -7447.6135 292.9257 312.2909 405.8188 30661.1588 312.2909 405.8188
ENERGY: 300000 1.8828 11.9091 6.3973 0.0000 -10632.7484 1418.7553 0.0000 0.0000 1741.4928 -7452.3111 296.8696 -9193.8039 -7438.1592 299.8506 -149.9968 -27.2030 30096.5795 66.5263 158.7629
ENERGY: 600000 5.7451 10.7775 4.7260 0.0000 -10642.3346 1520.0961 0.0000 0.0000 1785.7047 -7315.2851 304.4063 -9100.9898 -7393.9406 300.7844 1004.7803 1072.9279 29830.5445 113.9380 197.2494
ENERGY: 900000 2.0964 15.9877 4.8357 0.0000 -10662.3532 1468.5671 0.0000 0.0000 1703.7264 -7467.1399 290.4316 -9170.8663 -7407.9524 298.7752 281.4335 327.6345 30034.9641 29.4227 102.0401
ENERGY: 1200000 3.2664 8.2717 5.4450 0.0000 -10710.2099 1514.1132 0.0000 0.0000 1725.9366 -7453.1770 294.2178 -9179.1136 -7418.0171 298.5859 317.6436 378.6704 30285.0065 79.8390 150.9912
ENERGY: 1500000 1.7249 15.7240 3.4499 0.0000 -10665.0626 1483.0978 0.0000 0.0000 1758.4882 -7402.5777 299.7668 -9161.0659 -7432.0317 297.8083 439.2110 501.0167 29972.4686 80.9314 153.6032
TCL: Running FEP window  20: Lambda1 0.049999999999999684 Lambda2 0.0    [dLambda -0.049999999999999684]
TCL: Setting parameter firsttimestep to 0
TCL: Setting parameter alchLambda to 0.049999999999999684
Info: NONBONDED TABLE R-SQUARED SPACING: 0.0625
Info: NONBONDED TABLE SIZE: 705 POINTS
TCL: Setting parameter alchLambda2 to 0.0
Info: NONBONDED TABLE R-SQUARED SPACING: 0.0625
Info: NONBONDED TABLE SIZE: 705 POINTS
TCL: Running for 1500000 steps
ETITLE: TS BOND ANGLE DIHED IMPRP ELECT VDW BOUNDARY MISC KINETIC TOTAL TEMP POTENTIAL TOTALAVG TEMPAVG PRESSURE GPRESSURE VOLUME PRESSAVG GPRESSAVG
ENERGY: 0 1.7249 15.7240 3.4499 0.0000 -10665.0641 1481.9866 0.0000 0.0000 1757.6422 -7404.5365 299.6225 -9162.1787 -7404.5365 299.6225 413.4005 492.6646 29972.4686 413.4005 492.6646
ENERGY: 300000 4.0290 10.6976 5.8728 0.0000 -10548.6112 1418.7501 0.0000 0.0000 1790.9016 -7318.3602 305.2922 -9109.2618 -7373.4524 302.9393 31.1376 47.8984 30258.9936 198.7964 241.1298
ENERGY: 600000 5.7153 19.8428 4.4737 0.0000 -10583.5909 1407.6755 0.0000 0.0000 1728.1099 -7417.7738 294.5882 -9145.8837 -7375.3586 303.5827 -250.5604 -238.3996 30017.0730 73.5952 120.3493
ENERGY: 900000 2.9849 16.5238 6.4037 0.0000 -10459.9357 1386.7681 0.0000 0.0000 1805.2107 -7242.0444 307.7315 -9047.2552 -7353.1291 303.9818 -382.3466 -310.4683 30599.9493 77.7057 140.9723
ENERGY: 1200000 1.1584 7.2244 8.4002 0.0000 -10690.1452 1484.3050 0.0000 0.0000 1759.1966 -7429.8607 299.8875 -9189.0572 -7369.7459 303.6074 296.1002 347.0122 30409.7012 188.6974 243.1257
ENERGY: 1500000 3.7628 17.0497 4.9104 0.0000 -10704.2416 1494.1062 0.0000 0.0000 1753.9533 -7430.4592 298.9937 -9184.4124 -7379.5294 303.1573 258.8364 295.4004 30159.6550 198.1203 255.6976
TCL: Exiting due to exit command.
