Info: SIMULATION PARAMETERS:
Info: TIMESTEP               2
Info: NUMBER OF STEPS        0
Info: STEPS PER CYCLE        10
Info: PERIODIC CELL BASIS 1  30.2351 0 0
Info: PERIODIC CELL BASIS 2  0 30.2819 0
Info: PERIODIC CELL BASIS 3  0 0 32.4359
Info: PERIODIC CELL CENTER   0 0 0
Info: WRAPPING WATERS AROUND PERIODIC BOUNDARIES ON OUTPUT.
Info: WRAPPING ALL CLUSTERS AROUND PERIODIC BOUNDARIES ON OUTPUT.
Info: FIRST LDB TIMESTEP     50
Info: LAST LDB TIMESTEP     -1
Info: HOM BACKGROUND SCALING 1
Info: PME BACKGROUND SCALING 1
Info: MIN ATOMS PER PATCH    40
Info: EMPTY PATCH LOAD       40 ATOMS
Info: VELOCITY FILE          mobley_3325209_equil.vel
Info: CENTER OF MASS MOVING INITIALLY? NO
Info: DIELECTRIC             1
Info: EXCLUDE                SCALED ONE-FOUR
Info: 1-4 ELECTROSTATICS SCALED BY 0.833333
Info: MODIFIED 1-4 VDW PARAMETERS WILL BE USED
Info: DCD FILENAME           mobley_3325209_prod.dcd
Info: DCD FREQUENCY          100000
Info: DCD FIRST STEP         100000
Info: DCD FILE WILL CONTAIN UNIT CELL DATA
Info: XST FILENAME           mobley_3325209_prod.xst
Info: XST FREQUENCY          100000
Info: NO VELOCITY DCD OUTPUT
Info: NO FORCE DCD OUTPUT
Info: OUTPUT FILENAME        mobley_3325209_prod
Info: BINARY OUTPUT FILES WILL BE USED
Info: RESTART FILENAME       mobley_3325209_prod.restart
Info: RESTART FREQUENCY      100000
Info: BINARY RESTART FILES WILL BE USED
Info: CUTOFF                 9
Info: PAIRLIST DISTANCE      11
Info: PAIRLIST SHRINK RATE   0.01
Info: PAIRLIST GROW RATE     0.01
Info: PAIRLIST TRIGGER       0.3
Info: PAIRLISTS PER CYCLE    2
Info: PAIRLISTS ENABLED
Info: MARGIN                 2
Info: HYDROGEN GROUP CUTOFF  2.5
Info: PATCH DIMENSION        15.5
Info: ENERGY OUTPUT STEPS    100000
Info: ENERGY EVALUATION STEPS    100000
Info: OUTPUT ENERGY PRECISION 4
Info: CROSSTERM ENERGY INCLUDED IN DIHEDRAL
Info: TIMING OUTPUT STEPS    1000000
Info: PRESSURE OUTPUT STEPS  100000
Info: ALCHEMICAL FEP ON
Info: FEP CURRENT LAMBDA VALUE     1
Info: FEP COMPARISON LAMBDA VALUE  0.95
Info: FEP INTRA-ALCHEMICAL NON-BONDED INTERACTIONS WILL BE RETAINED
Info: FEP INTRA-ALCHEMICAL BONDED INTERACTIONS WILL BE RETAINED
Info: FEP VDW SHIFTING COEFFICIENT 5
Info: FEP ELEC. ACTIVE FOR ANNIHILATED PARTICLES BETWEEN LAMBDA = 0 AND LAMBDA = 0.5
Info: FEP ELEC. ACTIVE FOR EXNIHILATED PARTICLES BETWEEN LAMBDA = 0.5 AND LAMBDA = 1
Info: FEP VDW ACTIVE FOR ANNIHILATED PARTICLES BETWEEN LAMBDA = 0 AND LAMBDA = 1
Info: FEP VDW ACTIVE FOR EXNIHILATED PARTICLES BETWEEN LAMBDA = 0 AND LAMBDA = 1
Info: FEP BOND ACTIVE FOR ANNIHILATED PARTICLES BETWEEN LAMBDA = 1 AND LAMBDA = 1
Info: FEP BOND ACTIVE FOR EXNIHILATED PARTICLES BETWEEN LAMBDA = 0 AND LAMBDA = 0
Info: LANGEVIN DYNAMICS ACTIVE
Info: LANGEVIN TEMPERATURE   300
Info: LANGEVIN USING BBK INTEGRATOR
Info: LANGEVIN DAMPING COEFFICIENT IS 1 INVERSE PS
Info: LANGEVIN DYNAMICS APPLIED TO HYDROGENS
Info: LANGEVIN PISTON PRESSURE CONTROL ACTIVE
Info:        TARGET PRESSURE IS 1.01325 BAR
Info:     OSCILLATION PERIOD IS 50 FS
Info:             DECAY TIME IS 25 FS
Info:     PISTON TEMPERATURE IS 300 K
Info:       PRESSURE CONTROL IS GROUP-BASED
Info:    INITIAL STRAIN RATE IS 3.3488e-05 3.3488e-05 3.3488e-05
Info:       CELL FLUCTUATION IS ISOTROPIC
Info: PARTICLE MESH EWALD (PME) ACTIVE
Info: PME TOLERANCE               1e-06
Info: PME EWALD COEFFICIENT       0.348832
Info: PME INTERPOLATION ORDER     4
Info: PME GRID DIMENSIONS         32 32 36
Info: PME MAXIMUM GRID SPACING    1
Info: PME CALCULATION WILL BE PERFORMED ON GPU
Info: FULL ELECTROSTATIC EVALUATION FREQUENCY      2
Info: USING VERLET I (r-RESPA) MTS SCHEME.
Info: C1 SPLITTING OF LONG RANGE ELECTROSTATICS
Info: PLACING ATOMS IN PATCHES BY HYDROGEN GROUPS
Info: RIGID BONDS TO HYDROGEN : ALL
Info:         ERROR TOLERANCE : 1e-08
Info:          MAX ITERATIONS : 100
Info: RIGID WATER USING SETTLE ALGORITHM
Info: RANDOM NUMBER SEED     1743990021
Info: USE HYDROGEN BONDS?    NO
Info: Using AMBER format force field!
Info: AMBER PARM FILE        mobley_3325209.prmtop
Info: COORDINATE PDB         mobley_3325209.pdb
Info: Exclusions will be read from PARM file!
Info: SCNB (VDW SCALING)     2
Info: USING ARITHMETIC MEAN TO COMBINE L-J SIGMA PARAMETERS
Info: BINARY COORDINATES     mobley_3325209_equil.coor
Info: SUMMARY OF PARAMETERS:
Info: 7 BONDS
Info: 8 ANGLES
Info:   8 HARMONIC
Info:   0 COSINE-BASED
Info: 7 DIHEDRAL
Info: 0 IMPROPER
Info: 0 CROSSTERM
Info: 0 VDW
Info: 28 VDW_PAIRS
Info: 0 NBTHOLE_PAIRS
Info: To read alchdata from file: mobley_3325209.pdb
Info: To read alchflag data from column: 5
Info: STRUCTURE SUMMARY:
Info: 2925 ATOMS
Info: 2925 BONDS
Info: 45 ANGLES
Info: 66 DIHEDRALS
Info: 0 IMPROPERS
Info: 0 CROSSTERMS
Info: 3015 EXCLUSIONS
Info: 2912 RIGID BONDS
Info: ALCH: 0 ATOMS TO DISAPPEAR IN FINAL STATE
Info: ALCH: 27 ATOMS TO APPEAR IN FINAL STATE
Info: 5863 DEGREES OF FREEDOM
Info: 979 HYDROGEN GROUPS
Info: 4 ATOMS IN LARGEST HYDROGEN GROUP
Info: 979 MIGRATION GROUPS
Info: 4 ATOMS IN LARGEST MIGRATION GROUP
Info: TOTAL MASS = 17585.7 amu
Info: TOTAL CHARGE = -0.000800032 e
Info: MASS DENSITY = 0.983327 g/cm^3
Info: ATOM DENSITY = 0.0984931 atoms/A^3
Info: ADDED 0 IMPLICIT EXCLUSIONS
Info: NONBONDED TABLE R-SQUARED SPACING: 0.0625
Info: NONBONDED TABLE SIZE: 705 POINTS
Info: REMOVING COM VELOCITY 0.0539156 0.0942401 0.0639958
Info: Use 3D box decompostion in PME FFT.
Info: Updated CUDA force table with 4096 elements.
Info: Updated CUDA LJ table with 7 x 7 elements.
Info: Found 23 unique exclusion lists needing 76 bytes
TCL: Running for 1500000 steps
ETITLE: TS BOND ANGLE DIHED IMPRP ELECT VDW BOUNDARY MISC KINETIC TOTAL TEMP POTENTIAL TOTALAVG TEMPAVG PRESSURE GPRESSURE VOLUME PRESSAVG GPRESSAVG
ENERGY: 0 1.9635 11.0530 15.9896 0.0000 -10598.6151 1429.6604 0.0000 0.0000 1693.3504 -7446.5982 290.6815 -9139.9486 -7446.5982 290.6815 323.7658 389.0449 29697.5266 323.7658 389.0449
ENERGY: 300000 4.9313 12.7224 16.9257 0.0000 -10595.1963 1384.5570 0.0000 0.0000 1758.8550 -7417.2049 301.9260 -9176.0599 -7405.2723 298.0867 -597.1630 -541.7816 30382.3593 219.8929 282.8643
ENERGY: 600000 1.0693 10.6655 15.7125 0.0000 -10632.1694 1414.6575 0.0000 0.0000 1709.5811 -7480.4835 293.4676 -9190.0646 -7405.5128 299.4793 -104.7841 -22.3530 30206.3532 150.8039 220.7621
ENERGY: 900000 1.7001 13.2057 16.7011 0.0000 -10378.4942 1297.3312 0.0000 0.0000 1724.5492 -7325.0068 296.0371 -9049.5561 -7383.2580 300.1290 -754.0429 -716.5958 30480.3921 -103.1439 -31.2828
ENERGY: 1200000 3.5270 12.3342 17.0033 0.0000 -10703.9293 1458.7570 0.0000 0.0000 1732.2329 -7480.0748 297.3561 -9212.3078 -7392.6606 299.2593 212.8379 250.4474 29764.4701 -99.6622 -36.7746
ENERGY: 1500000 4.8907 13.7374 18.0217 0.0000 -10720.9193 1537.9329 0.0000 0.0000 1714.8796 -7431.4570 294.3772 -9146.3365 -7392.3900 298.0531 1127.9949 1270.7626 29661.6322 -19.3666 47.9110
TCL: Running FEP window   2: Lambda1 0.95   Lambda2 0.8999999999999999 [dLambda -0.050000000000000044]
TCL: Setting parameter firsttimestep to 0
TCL: Setting parameter alchLambda to 0.95
Info: NONBONDED TABLE R-SQUARED SPACING: 0.0625
Info: NONBONDED TABLE SIZE: 705 POINTS
TCL: Setting parameter alchLambda2 to 0.8999999999999999
Info: NONBONDED TABLE R-SQUARED SPACING: 0.0625
Info: NONBONDED TABLE SIZE: 705 POINTS
TCL: Running for 1500000 steps
ETITLE: TS BOND ANGLE DIHED IMPRP ELECT VDW BOUNDARY MISC KINETIC TOTAL TEMP POTENTIAL TOTALAVG TEMPAVG PRESSURE GPRESSURE VOLUME PRESSAVG GPRESSAVG
ENERGY: 0 4.8907 13.7374 18.0217 0.0000 -10719.4897 1537.8621 0.0000 0.0000 1713.9921 -7430.9856 294.2248 -9144.9778 -7430.9856 294.2248 1155.5384 1247.9308 29661.6322 1155.5384 1247.9308
ENERGY: 300000 2.8267 9.0326 17.0210 0.0000 -10579.9448 1401.7192 0.0000 0.0000 1807.4414 -7341.9040 310.2664 -9149.3454 -7403.1851 301.8889 -172.8553 -188.3759 30399.5334 67.1031 121.2801
ENERGY: 600000 2.0066 9.3630 15.9759 0.0000 -10625.8099 1426.5952 0.0000 0.0000 1724.4309 -7447.4384 296.0167 -9171.8692 -7402.8510 302.6546 78.6007 119.9843 30105.3301 -37.5705 9.2676
ENERGY: 900000 4.6424 10.5065 16.9762 0.0000 -10645.3272 1379.3966 0.0000 0.0000 1708.6959 -7525.1095 293.3157 -9233.8054 -7407.1547 301.2956 -550.6539 -520.4459 29799.1227 -21.7032 29.5472
ENERGY: 1200000 4.5309 8.3679 15.5517 0.0000 -10529.2278 1465.6596 0.0000 0.0000 1730.3050 -7304.8127 297.0251 -9035.1177 -7391.4192 300.6864 552.7248 590.3695 30331.8046 57.6263 111.6273
ENERGY: 1500000 4.3781 9.9089 18.5669 0.0000 -10599.3404 1367.0307 0.0000 0.0000 1697.1120 -7502.3438 291.3272 -9199.4558 -7394.8855 300.1585 -584.2034 -527.0230 30130.8057 -28.3619 25.1232
TCL: Running FEP window   3: Lambda1 0.8999999999999999 Lambda2 0.8499999999999999 [dLambda -0.050000000000000044]
TCL: Setting parameter firsttimestep to 0
TCL: Setting parameter alchLambda to 0.8999999999999999
Info: NONBONDED TABLE R-SQUARED SPACING: 0.0625
Info: NONBONDED TABLE SIZE: 705 POINTS
TCL: Setting parameter alchLambda2 to 0.8499999999999999
Info: NONBONDED TABLE R-SQUARED SPACING: 0.0625
Info: NONBONDED TABLE SIZE: 705 POINTS
TCL: Running for 1500000 steps
ETITLE: TS BOND ANGLE DIHED IMPRP ELECT VDW BOUNDARY MISC KINETIC TOTAL TEMP POTENTIAL TOTALAVG TEMPAVG PRESSURE GPRESSURE VOLUME PRESSAVG GPRESSAVG
ENERGY: 0 4.3781 9.9089 18.5669 0.0000 -10598.0281 1367.5560 0.0000 0.0000 1696.2702 -7501.3481 291.1827 -9197.6182 -7501.3481 291.1827 -626.6657 -535.5501 30130.8057 -626.6657 -535.5501
ENERGY: 300000 3.1800 11.4390 14.0670 0.0000 -10613.0379 1404.5011 0.0000 0.0000 1726.0868 -7453.7641 296.3010 -9179.8509 -7430.5909 295.3583 -293.6923 -214.9281 30145.7819 -194.2589 -127.9331
ENERGY: 600000 6.6775 13.0348 15.6868 0.0000 -10616.1758 1385.5596 0.0000 0.0000 1776.8208 -7418.3963 305.0100 -9195.2171 -7391.6281 298.3647 -417.9211 -351.5020 29967.7556 33.6572 101.6083
ENERGY: 900000 5.4339 11.6709 16.2257 0.0000 -10632.1335 1439.5945 0.0000 0.0000 1682.9607 -7476.2478 288.8979 -9159.2085 -7411.5878 297.6618 -374.5198 -300.5032 30605.9868 -80.2570 -13.3383
ENERGY: 1200000 7.9682 10.6991 18.0761 0.0000 -10588.1989 1409.6513 0.0000 0.0000 1737.4706 -7404.3335 298.2552 -9141.8041 -7421.4713 297.1022 -268.2831 -188.7294 30350.5782 -110.3464 -39.8444
ENERGY: 1500000 9.3438 6.4945 15.8013 0.0000 -10464.9824 1363.9020 0.0000 0.0000 1676.8139 -7392.6269 287.8428 -9069.4408 -7408.2078 297.0659 -602.7074 -549.8364 30681.6531 -104.6655 -37.6183
TCL: Running FEP window   4: Lambda1 0.8499999999999999 Lambda2 0.7999999999999998 [dLambda -0.050000000000000044]
TCL: Setting parameter firsttimestep to 0
TCL: Setting parameter alchLambda to 0.8499999999999999
Info: NONBONDED TABLE R-SQUARED SPACING: 0.0625
Info: NONBONDED TABLE SIZE: 705 POINTS
TCL: Setting parameter alchLambda2 to 0.7999999999999998
Info: NONBONDED TABLE R-SQUARED SPACING: 0.0625
Info: NONBONDED TABLE SIZE: 705 POINTS
TCL: Running for 1500000 steps
ETITLE: TS BOND ANGLE DIHED IMPRP ELECT VDW BOUNDARY MISC KINETIC TOTAL TEMP POTENTIAL TOTALAVG TEMPAVG PRESSURE GPRESSURE VOLUME PRESSAVG GPRESSAVG
ENERGY: 0 9.3438 6.4945 15.8013 0.0000 -10463.4003 1364.3493 0.0000 0.0000 1675.9895 -7391.4219 287.7013 -9067.4114 -7391.4219 287.7013 -633.6462 -555.3581 30681.6531 -633.6462 -555.3581
ENERGY: 300000 5.1994 14.1728 17.9674 0.0000 -10722.3049 1491.9431 0.0000 0.0000 1728.6363 -7464.3859 296.7387 -9193.0222 -7396.3179 295.1787 782.6107 827.0525 29247.6332 30.1295 79.8797
ENERGY: 600000 6.9268 9.2976 16.1833 0.0000 -10507.3918 1352.5999 0.0000 0.0000 1762.7186 -7359.6657 302.5892 -9122.3843 -7370.2282 299.8763 -862.1613 -797.9439 30530.0292 4.6177 64.3906
ENERGY: 900000 4.2735 9.3972 20.2868 0.0000 -10478.3011 1400.7424 0.0000 0.0000 1774.9331 -7268.6680 304.6860 -9043.6011 -7392.9712 298.7008 153.2708 195.3663 30223.4344 35.7441 97.1986
ENERGY: 1200000 5.4426 7.1674 15.4857 0.0000 -10622.2464 1474.6155 0.0000 0.0000 1754.0808 -7365.4544 301.1065 -9119.5352 -7392.4825 299.4727 407.1098 430.5173 30209.5198 58.6755 119.1546
ENERGY: 1500000 6.4884 12.7372 18.6133 0.0000 -10596.5469 1409.3637 0.0000 0.0000 1779.5674 -7369.7768 305.4815 -9149.3442 -7386.6621 299.9973 -399.1693 -288.0130 30255.6962 -34.0467 27.6684
TCL: Running FEP window   5: Lambda1 0.7999999999999998 Lambda2 0.7499999999999998 [dLambda -0.050000000000000044]
TCL: Setting parameter firsttimestep to 0
TCL: Setting parameter alchLambda to 0.7999999999999998
Info: NONBONDED TABLE R-SQUARED SPACING: 0.0625
Info: NONBONDED TABLE SIZE: 705 POINTS
TCL: Setting parameter alchLambda2 to 0.7499999999999998
Info: NONBONDED TABLE R-SQUARED SPACING: 0.0625
Info: NONBONDED TABLE SIZE: 705 POINTS
TCL: Running for 1500000 steps
ETITLE: TS BOND ANGLE DIHED IMPRP ELECT VDW BOUNDARY MISC KINETIC TOTAL TEMP POTENTIAL TOTALAVG TEMPAVG PRESSURE GPRESSURE VOLUME PRESSAVG GPRESSAVG
ENERGY: 0 6.4885 12.7372 18.6133 0.0000 -10594.7033 1409.0465 0.0000 0.0000 1778.7293 -7369.0886 305.3376 -9147.8179 -7369.0886 305.3376 -383.9852 -303.4172 30255.6962 -383.9852 -303.4172
ENERGY: 300000 6.1587 7.9712 15.2612 0.0000 -10514.4384 1363.2040 0.0000 0.0000 1752.2005 -7369.6428 300.7837 -9121.8433 -7375.8857 304.2010 -394.3653 -292.8625 30303.0698 -0.9573 70.0203
ENERGY: 600000 4.6254 17.0814 18.2448 0.0000 -10538.5931 1454.9438 0.0000 0.0000 1840.8213 -7202.8765 315.9964 -9043.6977 -7358.1949 304.2976 240.9536 360.9566 30745.3152 -147.2854 -72.9058
ENERGY: 900000 7.4875 18.6051 17.5622 0.0000 -10450.0971 1316.3480 0.0000 0.0000 1746.5127 -7343.5816 299.8073 -9090.0943 -7355.7857 303.7867 -955.0966 -901.4182 30387.9074 -167.4070 -96.5009
ENERGY: 1200000 5.1278 10.1173 17.6073 0.0000 -10683.0250 1538.6332 0.0000 0.0000 1764.6921 -7346.8474 302.9280 -9111.5395 -7355.6871 302.4946 1107.0529 1158.1967 29855.6813 -143.0536 -70.4181
ENERGY: 1500000 3.2362 7.0889 17.5774 0.0000 -10618.8208 1415.9474 0.0000 0.0000 1738.2001 -7436.7708 298.3804 -9174.9709 -7354.5483 301.8715 -73.1493 8.7797 30035.0851 -121.0293 -51.8299
TCL: Running FEP window   6: Lambda1 0.7499999999999998 Lambda2 0.6999999999999997 [dLambda -0.050000000000000044]
TCL: Setting parameter firsttimestep to 0
TCL: Setting parameter alchLambda to 0.7499999999999998
Info: NONBONDED TABLE R-SQUARED SPACING: 0.0625
Info: NONBONDED TABLE SIZE: 705 POINTS
TCL: Setting parameter alchLambda2 to 0.6999999999999997
Info: NONBONDED TABLE R-SQUARED SPACING: 0.0625
Info: NONBONDED TABLE SIZE: 705 POINTS
TCL: Running for 1500000 steps
ETITLE: TS BOND ANGLE DIHED IMPRP ELECT VDW BOUNDARY MISC KINETIC TOTAL TEMP POTENTIAL TOTALAVG TEMPAVG PRESSURE GPRESSURE VOLUME PRESSAVG GPRESSAVG
ENERGY: 0 3.2362 7.0889 17.5774 0.0000 -10617.7396 1415.8119 0.0000 0.0000 1737.3245 -7436.7007 298.2301 -9174.0252 -7436.7007 298.2301 -79.8391 -7.2945 30035.0851 -79.8391 -7.2945
ENERGY: 300000 3.1560 12.1653 15.9950 0.0000 -10596.0206 1395.4824 0.0000 0.0000 1760.7670 -7408.4549 302.2542 -9169.2219 -7416.2232 296.4071 -394.0483 -287.8885 30069.7663 -330.3961 -246.1751
ENERGY: 600000 6.0384 15.8046 16.4632 0.0000 -10482.4295 1355.5052 0.0000 0.0000 1772.6862 -7315.9320 304.3003 -9088.6181 -7397.9607 299.2008 -506.9339 -412.5424 30062.9957 -165.1482 -96.5099
ENERGY: 900000 2.6550 12.7235 17.8470 0.0000 -10664.6335 1510.4125 0.0000 0.0000 1783.7954 -7337.2002 306.2073 -9120.9955 -7385.7423 299.9389 788.7747 835.3312 29957.1160 125.6696 191.8694
ENERGY: 1200000 1.5346 13.3840 17.2103 0.0000 -10470.2626 1339.4705 0.0000 0.0000 1752.6002 -7346.0630 300.8523 -9098.6632 -7383.7163 299.7067 -497.7046 -453.0809 30550.3281 2.3259 62.4103
ENERGY: 1500000 6.1440 12.9077 13.7803 0.0000 -10486.7635 1362.0109 0.0000 0.0000 1715.2406 -7376.6801 294.4391 -9091.9206 -7375.9821 299.9904 -339.7876 -359.3462 30177.4782 41.6109 96.1768
TCL: Running FEP window   7: Lambda1 0.6999999999999997 Lambda2 0.6499999999999997 [dLambda -0.050000000000000044]
TCL: Setting parameter firsttimestep to 0
TCL: Setting parameter alchLambda to 0.6999999999999997
Info: NONBONDED TABLE R-SQUARED SPACING: 0.0625
Info: NONBONDED TABLE SIZE: 705 POINTS
TCL: Setting parameter alchLambda2 to 0.6499999999999997
Info: NONBONDED TABLE R-SQUARED SPACING: 0.0625
Info: NONBONDED TABLE SIZE: 705 POINTS
TCL: Running for 1500000 steps
ETITLE: TS BOND ANGLE DIHED IMPRP ELECT VDW BOUNDARY MISC KINETIC TOTAL TEMP POTENTIAL TOTALAVG TEMPAVG PRESSURE GPRESSURE VOLUME PRESSAVG GPRESSAVG
ENERGY: 0 6.1440 12.9077 13.7803 0.0000 -10485.7050 1362.4879 0.0000 0.0000 1714.3480 -7376.0372 294.2859 -9090.3852 -7376.0372 294.2859 -448.6904 -367.8330 30177.4782 -448.6904 -367.8330
ENERGY: 300000 2.8788 11.7299 16.5306 0.0000 -10483.8363 1360.5485 0.0000 0.0000 1746.2160 -7345.9326 299.7564 -9092.1485 -7338.9150 301.2300 -414.1071 -386.8512 30140.2170 -59.1399 -28.3173
ENERGY: 600000 2.6044 8.7754 14.8809 0.0000 -10581.0467 1466.7983 0.0000 0.0000 1723.8739 -7364.1139 295.9211 -9087.9878 -7338.6786 301.6184 870.6485 820.4411 29671.1768 82.3738 113.3896
ENERGY: 900000 5.3745 10.1265 16.1438 0.0000 -10624.8462 1385.3442 0.0000 0.0000 1772.8248 -7435.0324 304.3241 -9207.8572 -7364.7265 301.6321 -150.2097 -142.0639 29634.3823 35.3584 68.5457
ENERGY: 1200000 6.7576 13.0526 18.1695 0.0000 -10693.8097 1494.7670 0.0000 0.0000 1771.5997 -7389.4632 304.1138 -9161.0629 -7370.8610 302.0307 242.4141 320.4211 29908.3720 34.7061 73.8240
ENERGY: 1500000 5.6926 7.8744 15.8445 0.0000 -10644.5207 1463.4250 0.0000 0.0000 1742.9539 -7408.7302 299.1964 -9151.6841 -7363.3077 302.1093 290.9525 391.3550 29912.1750 29.0132 79.1192
TCL: Running FEP window   8: Lambda1 0.6499999999999997 Lambda2 0.5999999999999996 [dLambda -0.050000000000000044]
TCL: Setting parameter firsttimestep to 0
TCL: Setting parameter alchLambda to 0.6499999999999997
Info: NONBONDED TABLE R-SQUARED SPACING: 0.0625
Info: NONBONDED TABLE SIZE: 705 POINTS
TCL: Setting parameter alchLambda2 to 0.5999999999999996
Info: NONBONDED TABLE R-SQUARED SPACING: 0.0625
Info: NONBONDED TABLE SIZE: 705 POINTS
TCL: Running for 1500000 steps
ETITLE: TS BOND ANGLE DIHED IMPRP ELECT VDW BOUNDARY MISC KINETIC TOTAL TEMP POTENTIAL TOTALAVG TEMPAVG PRESSURE GPRESSURE VOLUME PRESSAVG GPRESSAVG
ENERGY: 0 5.6926 7.8744 15.8445 0.0000 -10642.2357 1462.1298 0.0000 0.0000 1742.0902 -7408.6041 299.0482 -9150.6943 -7408.6041 299.0482 286.9566 372.5675 29912.1750 286.9566 372.5675
ENERGY: 300000 5.5705 10.8596 16.5903 0.0000 -10515.9363 1392.3769 0.0000 0.0000 1787.3080 -7303.2309 306.8103 -9090.5389 -7359.8370 306.1906 -146.8271 -119.3094 30244.3117 -84.4433 -18.2870
ENERGY: 600000 5.1471 11.5719 17.5982 0.0000 -10622.7136 1445.4957 0.0000 0.0000 1676.3553 -7466.5454 287.7641 -9142.9008 -7394.8388 300.2634 -198.7979 -199.3862 29997.7672 -133.0600 -76.7980
ENERGY: 900000 5.0188 8.9513 16.8503 0.0000 -10657.3325 1451.4195 0.0000 0.0000 1765.0167 -7410.0760 302.9837 -9175.0927 -7404.2647 299.4769 37.1634 125.6466 30006.8689 -84.0489 -13.0645
ENERGY: 1200000 2.9602 10.3564 15.7561 0.0000 -10513.3148 1370.6528 0.0000 0.0000 1757.7881 -7355.8012 301.7429 -9113.5893 -7401.9348 299.5665 -634.4786 -559.9433 30244.9414 -106.0796 -33.7089
ENERGY: 1500000 4.7266 7.4866 16.6681 0.0000 -10648.1006 1401.6244 0.0000 0.0000 1721.8970 -7495.6980 295.5818 -9217.5949 -7399.6000 299.6872 -688.5866 -595.3905 30236.0649 -172.0748 -98.5757
TCL: Running FEP window   9: Lambda1 0.5999999999999996 Lambda2 0.5499999999999996 [dLambda -0.050000000000000044]
TCL: Setting parameter firsttimestep to 0
TCL: Setting parameter alchLambda to 0.5999999999999996
Info: NONBONDED TABLE R-SQUARED SPACING: 0.0625
Info: NONBONDED TABLE SIZE: 705 POINTS
TCL: Setting parameter alchLambda2 to 0.5499999999999996
Info: NONBONDED TABLE R-SQUARED SPACING: 0.0625
Info: NONBONDED TABLE SIZE: 705 POINTS
TCL: Running for 1500000 steps
ETITLE: TS BOND ANGLE DIHED IMPRP ELECT VDW BOUNDARY MISC KINETIC TOTAL TEMP POTENTIAL TOTALAVG TEMPAVG PRESSURE GPRESSURE VOLUME PRESSAVG GPRESSAVG
ENERGY: 0 4.7266 7.4866 16.6681 0.0000 -10648.3111 1401.6046 0.0000 0.0000 1721.0236 -7496.8016 295.4318 -9217.8252 -7496.8016 295.4318 -691.2803 -607.2010 30236.0649 -691.2803 -607.2010
ENERGY: 300000 3.1690 13.2779 16.9459 0.0000 -10644.6185 1452.4953 0.0000 0.0000 1764.7336 -7393.9968 302.9351 -9158.7304 -7396.5442 302.4856 214.4844 287.0600 29934.8938 -5.4636 60.7829
ENERGY: 600000 2.7052 6.9059 14.1268 0.0000 -10541.7954 1384.6053 0.0000 0.0000 1679.2604 -7454.1919 288.2628 -9133.4523 -7380.6367 300.8461 -274.7997 -224.2689 30224.5619 48.4882 104.6202
ENERGY: 900000 4.3332 13.8505 16.1242 0.0000 -10608.1624 1435.9095 0.0000 0.0000 1723.6953 -7414.2496 295.8905 -9137.9449 -7403.6894 298.6853 99.1491 218.8587 29737.3356 86.3864 153.9244
ENERGY: 1200000 4.8497 8.0258 14.1265 0.0000 -10514.8877 1403.3080 0.0000 0.0000 1732.0227 -7352.5550 297.3200 -9084.5777 -7391.3928 298.9563 33.1190 100.9632 29923.0628 -19.8000 48.3480
ENERGY: 1500000 8.7790 9.2976 16.3290 0.0000 -10598.5201 1476.6918 0.0000 0.0000 1732.8298 -7354.5929 297.4585 -9087.4227 -7385.6885 299.5248 260.4580 385.6387 30379.1830 -43.5093 26.0116
TCL: Running FEP window  10: Lambda1 0.5499999999999996 Lambda2 0.4999999999999996 [dLambda -0.04999999999999999]
TCL: Setting parameter firsttimestep to 0
TCL: Setting parameter alchLambda to 0.5499999999999996
Info: NONBONDED TABLE R-SQUARED SPACING: 0.0625
Info: NONBONDED TABLE SIZE: 705 POINTS
TCL: Setting parameter alchLambda2 to 0.4999999999999996
Info: NONBONDED TABLE R-SQUARED SPACING: 0.0625
Info: NONBONDED TABLE SIZE: 705 POINTS
TCL: Running for 1500000 steps
ETITLE: TS BOND ANGLE DIHED IMPRP ELECT VDW BOUNDARY MISC KINETIC TOTAL TEMP POTENTIAL TOTALAVG TEMPAVG PRESSURE GPRESSURE VOLUME PRESSAVG GPRESSAVG
ENERGY: 0 8.7790 9.2976 16.3290 0.0000 -10598.0706 1475.9280 0.0000 0.0000 1731.9598 -7355.7773 297.3092 -9087.7371 -7355.7773 297.3092 282.2215 370.8184 30379.1830 282.2215 370.8184
ENERGY: 300000 3.6721 9.5059 14.8473 0.0000 -10662.6916 1518.9183 0.0000 0.0000 1736.4206 -7379.3273 298.0749 -9115.7479 -7377.7302 299.3410 793.1809 780.8685 30215.3318 410.0869 485.8430
ENERGY: 600000 4.4518 12.2193 16.1405 0.0000 -10493.9233 1382.6657 0.0000 0.0000 1789.8106 -7288.6355 307.2399 -9078.4461 -7391.8190 299.2672 -247.8970 -215.8112 30001.9370 174.1278 250.0661
ENERGY: 900000 1.8144 12.7770 16.4181 0.0000 -10502.4307 1370.8159 0.0000 0.0000 1780.9146 -7319.6906 305.7128 -9100.6052 -7376.4405 300.3597 -123.9315 -30.8682 29937.2672 85.9367 159.5791
ENERGY: 1200000 5.1564 8.2472 15.0899 0.0000 -10655.6496 1500.5190 0.0000 0.0000 1761.9552 -7364.6821 302.4582 -9126.6372 -7377.9657 299.8662 864.3980 916.3409 29564.3855 114.9734 182.4250
ENERGY: 1500000 7.0043 6.3377 14.8600 0.0000 -10519.3640 1337.4479 0.0000 0.0000 1695.4522 -7458.2619 291.0422 -9153.7141 -7376.7393 299.4565 -813.0069 -800.3037 29636.8770 -36.3125 25.5725
TCL: Running FEP window  11: Lambda1 0.4999999999999996 Lambda2 0.4499999999999996 [dLambda -0.04999999999999999]
TCL: Setting parameter firsttimestep to 0
TCL: Setting parameter alchLambda to 0.4999999999999996
Info: NONBONDED TABLE R-SQUARED SPACING: 0.0625
Info: NONBONDED TABLE SIZE: 705 POINTS
TCL: Setting parameter alchLambda2 to 0.4499999999999996
Info: NONBONDED TABLE R-SQUARED SPACING: 0.0625
Info: NONBONDED TABLE SIZE: 705 POINTS
TCL: Running for 1500000 steps
ETITLE: TS BOND ANGLE DIHED IMPRP ELECT VDW BOUNDARY MISC KINETIC TOTAL TEMP POTENTIAL TOTALAVG TEMPAVG PRESSURE GPRESSURE VOLUME PRESSAVG GPRESSAVG
ENERGY: 0 7.0043 6.3377 14.8600 0.0000 -10519.6455 1338.0727 0.0000 0.0000 1694.5687 -7458.8020 290.8906 -9153.3707 -7458.8020 290.8906 -886.0353 -805.6052 29636.8770 -886.0353 -805.6052
ENERGY: 300000 7.8080 13.0008 16.3667 0.0000 -10616.2505 1427.7713 0.0000 0.0000 1764.0716 -7387.2320 302.8215 -9151.3036 -7352.1129 300.5305 -427.0699 -334.9519 30228.4010 -441.0081 -369.6999
ENERGY: 600000 1.7605 17.5269 13.9601 0.0000 -10589.9863 1476.0662 0.0000 0.0000 1749.1600 -7331.5126 300.2618 -9080.6726 -7356.2913 300.1123 534.0851 660.1889 29813.8435 -224.3710 -151.8863
ENERGY: 900000 3.9024 13.5098 16.4311 0.0000 -10548.1557 1393.2189 0.0000 0.0000 1783.9115 -7337.1820 306.2272 -9121.0935 -7361.4179 301.2289 -391.8025 -331.1113 30298.5220 -222.2436 -147.6749
ENERGY: 1200000 3.8703 8.9366 15.6089 0.0000 -10682.2763 1485.4262 0.0000 0.0000 1777.5365 -7390.8978 305.1329 -9168.4343 -7353.6746 301.9769 849.8697 857.2801 29354.8797 -21.2687 47.4040
ENERGY: 1500000 6.3997 11.1579 17.1539 0.0000 -10438.8213 1325.4490 0.0000 0.0000 1738.8712 -7339.7896 298.4956 -9078.6608 -7356.3143 301.6659 -885.2416 -873.4390 30382.8907 -170.5324 -110.1571
TCL: Running FEP window  12: Lambda1 0.4499999999999996 Lambda2 0.39999999999999963 [dLambda -0.04999999999999999]
TCL: Setting parameter firsttimestep to 0
TCL: Setting parameter alchLambda to 0.4499999999999996
Info: NONBONDED TABLE R-SQUARED SPACING: 0.0625
Info: NONBONDED TABLE SIZE: 705 POINTS
TCL: Setting parameter alchLambda2 to 0.39999999999999963
Info: NONBONDED TABLE R-SQUARED SPACING: 0.0625
Info: NONBONDED TABLE SIZE: 705 POINTS
TCL: Running for 1500000 steps
ETITLE: TS BOND ANGLE DIHED IMPRP ELECT VDW BOUNDARY MISC KINETIC TOTAL TEMP POTENTIAL TOTALAVG TEMPAVG PRESSURE GPRESSURE VOLUME PRESSAVG GPRESSAVG
ENERGY: 0 6.3997 11.1579 17.1539 0.0000 -10438.8206 1325.9661 0.0000 0.0000 1738.0166 -7340.1263 298.3489 -9078.1430 -7340.1263 298.3489 -952.1302 -877.0804 30382.8907 -952.1302 -877.0804
ENERGY: 300000 4.0722 9.6468 17.0012 0.0000 -10653.3781 1472.4085 0.0000 0.0000 1767.4986 -7382.7508 303.4098 -9150.2494 -7391.6082 298.0311 292.7681 338.9622 29842.2003 -284.9934 -233.8696
ENERGY: 600000 5.2664 10.1693 16.0289 0.0000 -10542.0076 1383.7972 0.0000 0.0000 1731.3233 -7395.4225 297.1999 -9126.7458 -7375.5709 299.1901 -230.8673 -203.6433 29533.1242 -267.9894 -231.2609
ENERGY: 900000 4.3210 8.4470 15.2249 0.0000 -10523.8874 1382.3293 0.0000 0.0000 1721.6189 -7391.9463 295.5340 -9113.5652 -7384.9180 298.4663 -481.1422 -423.0707 30249.2740 -72.2582 -33.2089
ENERGY: 1200000 3.6922 11.0110 14.7547 0.0000 -10698.3046 1471.8689 0.0000 0.0000 1733.2870 -7463.6906 297.5370 -9196.9777 -7389.7136 297.7037 163.7317 226.5431 29849.0138 -82.1541 -37.4929
ENERGY: 1500000 3.6961 11.2424 18.4217 0.0000 -10566.0938 1358.8722 0.0000 0.0000 1773.7390 -7400.1224 304.4810 -9173.8614 -7386.9570 298.6705 -343.3354 -335.6544 29896.2191 -33.1566 7.3307
TCL: Running FEP window  13: Lambda1 0.39999999999999963 Lambda2 0.34999999999999964 [dLambda -0.04999999999999999]
TCL: Setting parameter firsttimestep to 0
TCL: Setting parameter alchLambda to 0.39999999999999963
Info: NONBONDED TABLE R-SQUARED SPACING: 0.0625
Info: NONBONDED TABLE SIZE: 705 POINTS
TCL: Setting parameter alchLambda2 to 0.34999999999999964
Info: NONBONDED TABLE R-SQUARED SPACING: 0.0625
Info: NONBONDED TABLE SIZE: 705 POINTS
TCL: Running for 1500000 steps
ETITLE: TS BOND ANGLE DIHED IMPRP ELECT VDW BOUNDARY MISC KINETIC TOTAL TEMP POTENTIAL TOTALAVG TEMPAVG PRESSURE GPRESSURE VOLUME PRESSAVG GPRESSAVG
ENERGY: 0 3.6960 11.2424 18.4217 0.0000 -10566.0926 1358.5962 0.0000 0.0000 1772.8737 -7401.2625 304.3325 -9174.1363 -7401.2625 304.3325 -438.8943 -344.1931 29896.2191 -438.8943 -344.1931
ENERGY: 300000 2.8347 8.6734 17.3401 0.0000 -10615.3297 1425.5816 0.0000 0.0000 1714.4418 -7446.4580 294.3020 -9160.8998 -7395.2239 300.7491 -274.1552 -199.7553 30255.7677 -165.6907 -81.3346
ENERGY: 600000 6.2142 7.3903 17.2302 0.0000 -10659.0848 1489.0497 0.0000 0.0000 1745.2740 -7393.9264 299.5947 -9139.2005 -7391.5713 299.1665 563.0195 646.8870 29654.9501 64.4926 151.3744
ENERGY: 900000 2.5988 6.5787 16.4433 0.0000 -10638.8313 1490.3403 0.0000 0.0000 1711.8387 -7411.0315 293.8552 -9122.8702 -7402.4160 297.8227 401.8384 474.8513 30010.6633 43.6941 125.2115
ENERGY: 1200000 3.8182 8.2221 16.5360 0.0000 -10500.3376 1357.4545 0.0000 0.0000 1775.8514 -7338.4554 304.8436 -9114.3068 -7395.5800 298.1532 -724.7288 -681.7885 30274.0840 4.9421 80.6156
ENERGY: 1500000 1.7825 8.1409 14.3142 0.0000 -10473.9675 1321.1177 0.0000 0.0000 1802.6412 -7325.9710 309.4424 -9128.6122 -7385.5886 299.3907 -715.5734 -676.2362 29986.9187 -18.4000 54.1822
TCL: Running FEP window  14: Lambda1 0.34999999999999964 Lambda2 0.29999999999999966 [dLambda -0.04999999999999999]
TCL: Setting parameter firsttimestep to 0
TCL: Setting parameter alchLambda to 0.34999999999999964
Info: NONBONDED TABLE R-SQUARED SPACING: 0.0625
Info: NONBONDED TABLE SIZE: 705 POINTS
TCL: Setting parameter alchLambda2 to 0.29999999999999966
Info: NONBONDED TABLE R-SQUARED SPACING: 0.0625
Info: NONBONDED TABLE SIZE: 705 POINTS
TCL: Running for 1500000 steps
ETITLE: TS BOND ANGLE DIHED IMPRP ELECT VDW BOUNDARY MISC KINETIC TOTAL TEMP POTENTIAL TOTALAVG TEMPAVG PRESSURE GPRESSURE VOLUME PRESSAVG GPRESSAVG
ENERGY: 0 1.7825 8.1409 14.3142 0.0000 -10473.9674 1321.6515 0.0000 0.0000 1801.8118 -7326.2665 309.3000 -9128.0783 -7326.2665 309.3000 -742.8623 -680.6287 29986.9187 -742.8623 -680.6287
ENERGY: 300000 4.8844 9.7949 18.4654 0.0000 -10514.2475 1394.6261 0.0000 0.0000 1769.4561 -7317.0206 303.7458 -9086.4767 -7356.5908 301.6200 -11.4589 43.0723 29693.9856 -308.8483 -234.0007
ENERGY: 600000 6.0526 15.7825 15.6154 0.0000 -10600.4013 1373.6801 0.0000 0.0000 1733.5646 -7455.7062 297.5846 -9189.2707 -7377.9309 298.0071 -288.9803 -239.8582 29476.6374 -267.7681 -185.5537
ENERGY: 900000 4.7619 11.8640 16.8111 0.0000 -10548.3678 1379.6692 0.0000 0.0000 1736.0928 -7399.1688 298.0186 -9135.2616 -7383.7630 299.3292 -413.2635 -359.0954 29834.6055 -63.4572 12.4578
ENERGY: 1200000 3.7126 8.7923 16.8543 0.0000 -10385.3190 1337.3569 0.0000 0.0000 1791.3003 -7227.3026 307.4956 -9018.6030 -7365.9838 300.2851 -760.5768 -727.0335 30927.6165 -115.2870 -42.6166
ENERGY: 1500000 6.6202 11.3383 15.6014 0.0000 -10567.9402 1495.3858 0.0000 0.0000 1698.5710 -7340.4234 291.5776 -9038.9944 -7359.0033 299.9404 590.2421 614.1746 30154.4041 -34.3499 33.6899
TCL: Running FEP window  15: Lambda1 0.29999999999999966 Lambda2 0.24999999999999967 [dLambda -0.04999999999999999]
TCL: Setting parameter firsttimestep to 0
TCL: Setting parameter alchLambda to 0.29999999999999966
Info: NONBONDED TABLE R-SQUARED SPACING: 0.0625
Info: NONBONDED TABLE SIZE: 705 POINTS
TCL: Setting parameter alchLambda2 to 0.24999999999999967
Info: NONBONDED TABLE R-SQUARED SPACING: 0.0625
Info: NONBONDED TABLE SIZE: 705 POINTS
TCL: Running for 1500000 steps
ETITLE: TS BOND ANGLE DIHED IMPRP ELECT VDW BOUNDARY MISC KINETIC TOTAL TEMP POTENTIAL TOTALAVG TEMPAVG PRESSURE GPRESSURE VOLUME PRESSAVG GPRESSAVG
ENERGY: 0 6.6202 11.3383 15.6014 0.0000 -10567.9401 1495.9652 0.0000 0.0000 1697.7242 -7340.6907 291.4323 -9038.4149 -7340.6907 291.4323 528.6893 612.6719 30154.4041 528.6893 612.6719
ENERGY: 300000 9.0928 9.3185 16.1689 0.0000 -10563.6711 1404.7622 0.0000 0.0000 1754.9027 -7369.4260 301.2476 -9124.3287 -7360.0357 296.0016 -466.0961 -436.4277 30091.5980 89.0551 135.0450
ENERGY: 600000 9.1097 14.7633 15.6932 0.0000 -10546.6830 1410.1811 0.0000 0.0000 1751.1938 -7345.7419 300.6109 -9096.9357 -7344.8593 300.5478 -237.8331 -171.4195 30077.9574 37.2669 90.0810
ENERGY: 900000 5.4711 11.8078 14.5877 0.0000 -10546.3512 1371.9193 0.0000 0.0000 1694.1285 -7448.4367 290.8150 -9142.5652 -7378.7117 298.5227 -656.8320 -633.4692 30320.2734 10.0746 60.1772
ENERGY: 1200000 4.4503 12.7648 16.6444 0.0000 -10526.7793 1390.9387 0.0000 0.0000 1754.7715 -7347.2096 301.2250 -9101.9811 -7371.6590 299.8705 5.1777 61.7615 29670.0443 -16.0601 40.3775
ENERGY: 1500000 6.8609 11.9215 16.4957 0.0000 -10703.4975 1511.7658 0.0000 0.0000 1780.2095 -7376.2441 305.5917 -9156.4536 -7367.7232 300.5989 711.9553 748.5836 29469.1971 67.3507 119.7688
TCL: Running FEP window  16: Lambda1 0.24999999999999967 Lambda2 0.19999999999999968 [dLambda -0.04999999999999999]
TCL: Setting parameter firsttimestep to 0
TCL: Setting parameter alchLambda to 0.24999999999999967
Info: NONBONDED TABLE R-SQUARED SPACING: 0.0625
Info: NONBONDED TABLE SIZE: 705 POINTS
TCL: Setting parameter alchLambda2 to 0.19999999999999968
Info: NONBONDED TABLE R-SQUARED SPACING: 0.0625
Info: NONBONDED TABLE SIZE: 705 POINTS
TCL: Running for 1500000 steps
ETITLE: TS BOND ANGLE DIHED IMPRP ELECT VDW BOUNDARY MISC KINETIC TOTAL TEMP POTENTIAL TOTALAVG TEMPAVG PRESSURE GPRESSURE VOLUME PRESSAVG GPRESSAVG
ENERGY: 0 6.8609 11.9215 16.4957 0.0000 -10703.4975 1512.5626 0.0000 0.0000 1779.2954 -7376.3615 305.4348 -9155.6568 -7376.3615 305.4348 673.3319 750.2759 29469.1971 673.3319 750.2759
ENERGY: 300000 4.2370 11.4080 16.3295 0.0000 -10449.7868 1370.4753 0.0000 0.0000 1796.5180 -7250.8191 308.3913 -9047.3371 -7343.0165 304.8389 -318.3705 -279.5667 30228.4001 -205.1057 -154.8883
ENERGY: 600000 2.5522 9.0334 15.4340 0.0000 -10519.1053 1358.5604 0.0000 0.0000 1672.9101 -7460.6151 287.1727 -9133.5253 -7349.4465 302.1549 -467.1609 -388.6951 29971.8912 -56.9983 0.5913
ENERGY: 900000 6.0276 11.6976 15.6780 0.0000 -10597.9172 1389.3830 0.0000 0.0000 1742.5443 -7432.5867 299.1261 -9175.1310 -7358.4859 301.2283 -597.0716 -394.4517 29542.4651 -148.0556 -74.9808
ENERGY: 1200000 5.1889 8.9778 17.0310 0.0000 -10404.3006 1352.3578 0.0000 0.0000 1705.1218 -7315.6232 292.7021 -9020.7451 -7359.3895 300.1046 -503.9000 -430.3139 30202.4038 -177.8122 -111.4911
ENERGY: 1500000 6.5325 12.3879 18.8047 0.0000 -10597.8824 1481.8064 0.0000 0.0000 1737.2431 -7341.1078 298.2161 -9078.3510 -7356.9427 299.8370 707.6560 723.6756 29516.8773 -175.2065 -117.7902
TCL: Running FEP window  17: Lambda1 0.19999999999999968 Lambda2 0.1499999999999997 [dLambda -0.04999999999999999]
TCL: Setting parameter firsttimestep to 0
TCL: Setting parameter alchLambda to 0.19999999999999968
Info: NONBONDED TABLE R-SQUARED SPACING: 0.0625
Info: NONBONDED TABLE SIZE: 705 POINTS
TCL: Setting parameter alchLambda2 to 0.1499999999999997
Info: NONBONDED TABLE R-SQUARED SPACING: 0.0625
Info: NONBONDED TABLE SIZE: 705 POINTS
TCL: Running for 1500000 steps
ETITLE: TS BOND ANGLE DIHED IMPRP ELECT VDW BOUNDARY MISC KINETIC TOTAL TEMP POTENTIAL TOTALAVG TEMPAVG PRESSURE GPRESSURE VOLUME PRESSAVG GPRESSAVG
ENERGY: 0 6.5325 12.3879 18.8047 0.0000 -10597.8834 1482.2187 0.0000 0.0000 1736.3594 -7341.5802 298.0644 -9077.9397 -7341.5802 298.0644 636.4168 718.7432 29516.8773 636.4168 718.7432
ENERGY: 300000 2.3367 11.8136 18.4705 0.0000 -10468.5861 1391.2685 0.0000 0.0000 1797.9714 -7246.7255 308.6408 -9044.6969 -7271.6471 303.0663 -158.8155 -105.2186 30274.2928 -69.0037 -14.7071
ENERGY: 600000 2.3475 11.0219 16.8203 0.0000 -10400.7751 1313.3508 0.0000 0.0000 1720.8022 -7336.4324 295.3938 -9057.2346 -7311.7786 300.6693 -844.4978 -772.2104 30234.1512 -304.7103 -251.6857
ENERGY: 900000 4.9950 4.5521 18.4526 0.0000 -10563.4123 1462.8170 0.0000 0.0000 1756.7046 -7315.8910 301.5569 -9072.5956 -7313.0129 301.8746 185.5284 191.6880 30253.9611 -179.3062 -130.5931
ENERGY: 1200000 3.2342 11.7327 14.5583 0.0000 -10606.3555 1393.8062 0.0000 0.0000 1743.9519 -7439.0721 299.3677 -9183.0240 -7334.9004 301.2041 -445.3435 -464.6382 29770.3617 -80.2808 -32.1146
ENERGY: 1500000 2.1797 15.5387 17.6984 0.0000 -10549.0314 1383.4837 0.0000 0.0000 1774.0237 -7356.1071 304.5299 -9130.1308 -7334.2072 301.2905 -93.3536 6.4702 29620.6767 -31.9411 13.5937
TCL: Running FEP window  18: Lambda1 0.1499999999999997 Lambda2 0.09999999999999969 [dLambda -0.05 ]
TCL: Setting parameter firsttimestep to 0
TCL: Setting parameter alchLambda to 0.1499999999999997
Info: NONBONDED TABLE R-SQUARED SPACING: 0.0625
Info: NONBONDED TABLE SIZE: 705 POINTS
TCL: Setting parameter alchLambda2 to 0.09999999999999969
Info: NONBONDED TABLE R-SQUARED SPACING: 0.0625
Info: NONBONDED TABLE SIZE: 705 POINTS
TCL: Running for 1500000 steps
ETITLE: TS BOND ANGLE DIHED IMPRP ELECT VDW BOUNDARY MISC KINETIC TOTAL TEMP POTENTIAL TOTALAVG TEMPAVG PRESSURE GPRESSURE VOLUME PRESSAVG GPRESSAVG
ENERGY: 0 2.1797 15.5387 17.6984 0.0000 -10549.0308 1383.6918 0.0000 0.0000 1773.1944 -7356.7277 304.3875 -9129.9221 -7356.7277 304.3875 -75.2920 3.0903 29620.6767 -75.2920 3.0903
ENERGY: 300000 5.9166 7.0374 18.5561 0.0000 -10554.6555 1413.1455 0.0000 0.0000 1782.5753 -7327.4246 305.9979 -9110.0000 -7351.7684 301.7898 185.4714 241.2097 29429.0611 -577.5748 -515.8563
ENERGY: 600000 4.0920 10.5322 22.2695 0.0000 -10475.7269 1382.7934 0.0000 0.0000 1765.2528 -7290.7869 303.0243 -9056.0398 -7325.5037 302.6146 -64.6222 -72.1542 29793.0141 -450.2047 -385.9445
ENERGY: 900000 6.0539 12.5621 19.5623 0.0000 -10639.9139 1486.6361 0.0000 0.0000 1796.2430 -7318.8565 308.3440 -9115.0995 -7333.7358 301.8624 119.3492 157.9390 30217.5288 -382.5214 -314.7979
ENERGY: 1200000 2.8725 5.4906 15.1610 0.0000 -10500.3160 1371.0289 0.0000 0.0000 1714.8810 -7390.8821 294.3774 -9105.7631 -7349.0111 300.7629 -401.7807 -342.6503 29856.2085 -268.3899 -194.6206
ENERGY: 1500000 5.5841 8.6107 13.9282 0.0000 -10578.0703 1390.9027 0.0000 0.0000 1776.4248 -7382.6199 304.9420 -9159.0447 -7351.6340 300.9952 -212.0562 -135.4322 29708.5514 -170.8467 -103.6501
TCL: Running FEP window  19: Lambda1 0.09999999999999969 Lambda2 0.049999999999999684 [dLambda -0.05 ]
TCL: Setting parameter firsttimestep to 0
TCL: Setting parameter alchLambda to 0.09999999999999969
Info: NONBONDED TABLE R-SQUARED SPACING: 0.0625
Info: NONBONDED TABLE SIZE: 705 POINTS
TCL: Setting parameter alchLambda2 to 0.049999999999999684
Info: NONBONDED TABLE R-SQUARED SPACING: 0.0625
Info: NONBONDED TABLE SIZE: 705 POINTS
TCL: Running for 1500000 steps
ETITLE: TS BOND ANGLE DIHED IMPRP ELECT VDW BOUNDARY MISC KINETIC TOTAL TEMP POTENTIAL TOTALAVG TEMPAVG PRESSURE GPRESSURE VOLUME PRESSAVG GPRESSAVG
ENERGY: 0 5.5840 8.6108 13.9282 0.0000 -10578.0710 1390.7560 0.0000 0.0000 1775.5422 -7383.6499 304.7905 -9159.1921 -7383.6499 304.7905 -240.2345 -142.9307 29708.5514 -240.2345 -142.9307
ENERGY: 300000 8.8378 10.4023 16.4270 0.0000 -10520.1122 1371.2225 0.0000 0.0000 1740.1402 -7373.0825 298.7134 -9113.2227 -7369.9145 303.5400 -472.1534 -416.1167 29806.7763 -113.6505 -42.3650
ENERGY: 600000 4.1741 12.3498 16.9557 0.0000 -10596.5495 1480.4958 0.0000 0.0000 1743.1361 -7339.4381 299.2277 -9082.5742 -7381.5197 300.7084 476.6759 575.2133 29376.7202 -35.6691 37.9428
ENERGY: 900000 3.4754 12.6811 18.1462 0.0000 -10542.5955 1399.9624 0.0000 0.0000 1726.2746 -7382.0558 296.3332 -9108.3304 -7378.9696 300.0048 -148.5592 -57.2638 29660.7138 -57.0546 9.2098
ENERGY: 1200000 4.2789 8.3833 14.6969 0.0000 -10515.0385 1382.4479 0.0000 0.0000 1719.1034 -7386.1282 295.1022 -9105.2316 -7378.1026 299.1556 -426.5841 -343.1337 30148.5330 -184.0316 -115.4012
ENERGY: 1500000 4.0089 13.2997 16.3113 0.0000 -10573.4244 1440.1465 0.0000 0.0000 1772.1046 -7327.5534 304.2004 -9099.6580 -7376.2008 299.8614 151.8955 238.0578 29845.9841 -198.8294 -131.5214
TCL: Running FEP window  20: Lambda1 0.049999999999999684 Lambda2 0.0    [dLambda -0.049999999999999684]
TCL: Setting parameter firsttimestep to 0
TCL: Setting parameter alchLambda to 0.049999999999999684
Info: NONBONDED TABLE R-SQUARED SPACING: 0.0625
Info: NONBONDED TABLE SIZE: 705 POINTS
TCL: Setting parameter alchLambda2 to 0.0
Info: NONBONDED TABLE R-SQUARED SPACING: 0.0625
Info: NONBONDED TABLE SIZE: 705 POINTS
TCL: Running for 1500000 steps
ETITLE: TS BOND ANGLE DIHED IMPRP ELECT VDW BOUNDARY MISC KINETIC TOTAL TEMP POTENTIAL TOTALAVG TEMPAVG PRESSURE GPRESSURE VOLUME PRESSAVG GPRESSAVG
ENERGY: 0 4.0089 13.2997 16.3113 0.0000 -10573.4226 1440.3374 0.0000 0.0000 1771.2656 -7328.1998 304.0564 -9099.4654 -7328.1998 304.0564 161.6527 237.5146 29845.9841 161.6527 237.5146
ENERGY: 300000 6.1967 14.1840 14.6196 0.0000 -10541.9089 1475.2213 0.0000 0.0000 1774.7390 -7256.9483 304.6527 -9031.6873 -7366.5696 301.4067 251.9771 306.0308 30279.0338 -61.1603 9.9858
ENERGY: 600000 4.6394 9.8139 16.8345 0.0000 -10577.5441 1431.3656 0.0000 0.0000 1724.7747 -7390.1161 296.0758 -9114.8907 -7377.0387 299.9084 -52.1971 -90.3974 29957.4127 44.3821 95.9446
ENERGY: 900000 6.3450 12.3063 15.9161 0.0000 -10549.3549 1435.0781 0.0000 0.0000 1738.8473 -7340.8620 298.4915 -9079.7093 -7362.9174 300.4797 62.6247 102.5959 30115.3562 -19.8049 25.1108
ENERGY: 1200000 5.1137 10.1401 16.6236 0.0000 -10571.6314 1421.6057 0.0000 0.0000 1701.7115 -7416.4367 292.1167 -9118.1483 -7365.8287 299.9404 154.6746 210.4208 29269.8820 43.3804 97.7855
ENERGY: 1500000 3.9192 11.0795 18.6305 0.0000 -10464.9077 1415.8020 0.0000 0.0000 1751.6689 -7263.8076 300.6924 -9015.4765 -7361.8414 299.7079 219.0437 243.2003 30049.2997 73.8600 135.8698
TCL: Exiting due to exit command.
