Info: SIMULATION PARAMETERS:
Info: TIMESTEP               2
Info: NUMBER OF STEPS        0
Info: STEPS PER CYCLE        10
Info: PERIODIC CELL BASIS 1  32.2663 0 0
Info: PERIODIC CELL BASIS 2  0 30.5944 0
Info: PERIODIC CELL BASIS 3  0 0 30.8034
Info: PERIODIC CELL CENTER   0 0 0
Info: WRAPPING WATERS AROUND PERIODIC BOUNDARIES ON OUTPUT.
Info: WRAPPING ALL CLUSTERS AROUND PERIODIC BOUNDARIES ON OUTPUT.
Info: FIRST LDB TIMESTEP     50
Info: LAST LDB TIMESTEP     -1
Info: HOM BACKGROUND SCALING 1
Info: PME BACKGROUND SCALING 1
Info: MIN ATOMS PER PATCH    40
Info: EMPTY PATCH LOAD       40 ATOMS
Info: VELOCITY FILE          mobley_6081058_equil.vel
Info: CENTER OF MASS MOVING INITIALLY? NO
Info: DIELECTRIC             1
Info: EXCLUDE                SCALED ONE-FOUR
Info: 1-4 ELECTROSTATICS SCALED BY 0.833333
Info: MODIFIED 1-4 VDW PARAMETERS WILL BE USED
Info: DCD FILENAME           mobley_6081058_prod.dcd
Info: DCD FREQUENCY          100000
Info: DCD FIRST STEP         100000
Info: DCD FILE WILL CONTAIN UNIT CELL DATA
Info: XST FILENAME           mobley_6081058_prod.xst
Info: XST FREQUENCY          100000
Info: NO VELOCITY DCD OUTPUT
Info: NO FORCE DCD OUTPUT
Info: OUTPUT FILENAME        mobley_6081058_prod
Info: BINARY OUTPUT FILES WILL BE USED
Info: RESTART FILENAME       mobley_6081058_prod.restart
Info: RESTART FREQUENCY      100000
Info: BINARY RESTART FILES WILL BE USED
Info: CUTOFF                 9
Info: PAIRLIST DISTANCE      11
Info: PAIRLIST SHRINK RATE   0.01
Info: PAIRLIST GROW RATE     0.01
Info: PAIRLIST TRIGGER       0.3
Info: PAIRLISTS PER CYCLE    2
Info: PAIRLISTS ENABLED
Info: MARGIN                 2
Info: HYDROGEN GROUP CUTOFF  2.5
Info: PATCH DIMENSION        15.5
Info: ENERGY OUTPUT STEPS    100000
Info: ENERGY EVALUATION STEPS    100000
Info: OUTPUT ENERGY PRECISION 4
Info: CROSSTERM ENERGY INCLUDED IN DIHEDRAL
Info: TIMING OUTPUT STEPS    1000000
Info: PRESSURE OUTPUT STEPS  100000
Info: ALCHEMICAL FEP ON
Info: FEP CURRENT LAMBDA VALUE     0
Info: FEP COMPARISON LAMBDA VALUE  0.05
Info: FEP INTRA-ALCHEMICAL NON-BONDED INTERACTIONS WILL BE RETAINED
Info: FEP INTRA-ALCHEMICAL BONDED INTERACTIONS WILL BE RETAINED
Info: FEP VDW SHIFTING COEFFICIENT 5
Info: FEP ELEC. ACTIVE FOR ANNIHILATED PARTICLES BETWEEN LAMBDA = 0 AND LAMBDA = 0.5
Info: FEP ELEC. ACTIVE FOR EXNIHILATED PARTICLES BETWEEN LAMBDA = 0.5 AND LAMBDA = 1
Info: FEP VDW ACTIVE FOR ANNIHILATED PARTICLES BETWEEN LAMBDA = 0 AND LAMBDA = 1
Info: FEP VDW ACTIVE FOR EXNIHILATED PARTICLES BETWEEN LAMBDA = 0 AND LAMBDA = 1
Info: FEP BOND ACTIVE FOR ANNIHILATED PARTICLES BETWEEN LAMBDA = 1 AND LAMBDA = 1
Info: FEP BOND ACTIVE FOR EXNIHILATED PARTICLES BETWEEN LAMBDA = 0 AND LAMBDA = 0
Info: LANGEVIN DYNAMICS ACTIVE
Info: LANGEVIN TEMPERATURE   300
Info: LANGEVIN USING BBK INTEGRATOR
Info: LANGEVIN DAMPING COEFFICIENT IS 1 INVERSE PS
Info: LANGEVIN DYNAMICS APPLIED TO HYDROGENS
Info: LANGEVIN PISTON PRESSURE CONTROL ACTIVE
Info:        TARGET PRESSURE IS 1.01325 BAR
Info:     OSCILLATION PERIOD IS 50 FS
Info:             DECAY TIME IS 25 FS
Info:     PISTON TEMPERATURE IS 300 K
Info:       PRESSURE CONTROL IS GROUP-BASED
Info:    INITIAL STRAIN RATE IS 8.97081e-05 8.97081e-05 8.97081e-05
Info:       CELL FLUCTUATION IS ISOTROPIC
Info: PARTICLE MESH EWALD (PME) ACTIVE
Info: PME TOLERANCE               1e-06
Info: PME EWALD COEFFICIENT       0.348832
Info: PME INTERPOLATION ORDER     4
Info: PME GRID DIMENSIONS         36 32 32
Info: PME MAXIMUM GRID SPACING    1
Info: PME CALCULATION WILL BE PERFORMED ON GPU
Info: FULL ELECTROSTATIC EVALUATION FREQUENCY      2
Info: USING VERLET I (r-RESPA) MTS SCHEME.
Info: C1 SPLITTING OF LONG RANGE ELECTROSTATICS
Info: PLACING ATOMS IN PATCHES BY HYDROGEN GROUPS
Info: RIGID BONDS TO HYDROGEN : ALL
Info:         ERROR TOLERANCE : 1e-08
Info:          MAX ITERATIONS : 100
Info: RIGID WATER USING SETTLE ALGORITHM
Info: RANDOM NUMBER SEED     1744011784
Info: USE HYDROGEN BONDS?    NO
Info: Using AMBER format force field!
Info: AMBER PARM FILE        mobley_6081058.prmtop
Info: COORDINATE PDB         mobley_6081058.pdb
Info: Exclusions will be read from PARM file!
Info: SCNB (VDW SCALING)     2
Info: USING ARITHMETIC MEAN TO COMBINE L-J SIGMA PARAMETERS
Info: BINARY COORDINATES     mobley_6081058_equil.coor
Info: SUMMARY OF PARAMETERS:
Info: 11 BONDS
Info: 14 ANGLES
Info:   14 HARMONIC
Info:   0 COSINE-BASED
Info: 11 DIHEDRAL
Info: 0 IMPROPER
Info: 0 CROSSTERM
Info: 0 VDW
Info: 36 VDW_PAIRS
Info: 0 NBTHOLE_PAIRS
Info: To read alchdata from file: mobley_6081058.pdb
Info: To read alchflag data from column: 5
Info: STRUCTURE SUMMARY:
Info: 2948 ATOMS
Info: 2947 BONDS
Info: 39 ANGLES
Info: 57 DIHEDRALS
Info: 0 IMPROPERS
Info: 0 CROSSTERMS
Info: 3036 EXCLUSIONS
Info: 2939 RIGID BONDS
Info: ALCH: 0 ATOMS TO DISAPPEAR IN FINAL STATE
Info: ALCH: 23 ATOMS TO APPEAR IN FINAL STATE
Info: 5905 DEGREES OF FREEDOM
Info: 984 HYDROGEN GROUPS
Info: 4 ATOMS IN LARGEST HYDROGEN GROUP
Info: 984 MIGRATION GROUPS
Info: 4 ATOMS IN LARGEST MIGRATION GROUP
Info: TOTAL MASS = 17691.8 amu
Info: TOTAL CHARGE = -9.99868e-05 e
Info: MASS DENSITY = 0.966142 g/cm^3
Info: ATOM DENSITY = 0.0969476 atoms/A^3
Info: ADDED 0 IMPLICIT EXCLUSIONS
Info: NONBONDED TABLE R-SQUARED SPACING: 0.0625
Info: NONBONDED TABLE SIZE: 705 POINTS
Info: REMOVING COM VELOCITY -0.0901723 -0.0246609 0.215665
Info: Use 3D box decompostion in PME FFT.
Info: Updated CUDA force table with 4096 elements.
Info: Updated CUDA LJ table with 8 x 8 elements.
Info: Found 24 unique exclusion lists needing 80 bytes
TCL: Running for 1500000 steps
ETITLE: TS BOND ANGLE DIHED IMPRP ELECT VDW BOUNDARY MISC KINETIC TOTAL TEMP POTENTIAL TOTALAVG TEMPAVG PRESSURE GPRESSURE VOLUME PRESSAVG GPRESSAVG
ENERGY: 0 1.9625 8.2166 4.0645 0.0000 -10536.5147 1410.0275 0.0000 0.0000 1742.6663 -7369.5773 297.0193 -9112.2436 -7369.5773 297.0193 112.8290 194.1289 30408.1700 112.8290 194.1289
ENERGY: 300000 3.1825 9.6746 2.7071 0.0000 -10606.5176 1428.3303 0.0000 0.0000 1687.4880 -7475.1350 287.6148 -9162.6230 -7444.3913 298.5629 -47.5055 -22.4334 30076.4639 -128.8838 -82.9430
ENERGY: 600000 3.0168 6.9307 2.5508 0.0000 -10645.2987 1387.0309 0.0000 0.0000 1702.5268 -7543.2427 290.1780 -9245.7695 -7452.6587 297.2162 -713.5783 -618.0094 30336.4689 -218.1255 -167.8357
ENERGY: 900000 2.2846 12.0999 3.7566 0.0000 -10669.1045 1440.7588 0.0000 0.0000 1731.5138 -7478.6907 295.1185 -9210.2045 -7468.7730 296.6452 41.7986 17.7848 30295.1287 -128.2180 -83.1608
ENERGY: 1200000 3.4949 8.1944 3.4484 0.0000 -10602.2249 1411.8107 0.0000 0.0000 1772.2086 -7403.0679 302.0545 -9175.2765 -7449.1896 297.7788 -536.8145 -523.2289 30979.3481 -285.9109 -239.9406
ENERGY: 1500000 2.4075 9.5856 3.7367 0.0000 -10593.3885 1408.8347 0.0000 0.0000 1776.4754 -7392.3486 302.7817 -9168.8240 -7453.3856 298.1313 -146.6259 -60.8492 30207.2160 -283.1748 -228.2195
TCL: Running FEP window   2: Lambda1 0.05   Lambda2 0.1    [dLambda 0.05  ]
TCL: Setting parameter firsttimestep to 0
TCL: Setting parameter alchLambda to 0.05
Info: NONBONDED TABLE R-SQUARED SPACING: 0.0625
Info: NONBONDED TABLE SIZE: 705 POINTS
TCL: Setting parameter alchLambda2 to 0.1
Info: NONBONDED TABLE R-SQUARED SPACING: 0.0625
Info: NONBONDED TABLE SIZE: 705 POINTS
TCL: Running for 1500000 steps
ETITLE: TS BOND ANGLE DIHED IMPRP ELECT VDW BOUNDARY MISC KINETIC TOTAL TEMP POTENTIAL TOTALAVG TEMPAVG PRESSURE GPRESSURE VOLUME PRESSAVG GPRESSAVG
ENERGY: 0 2.4075 9.5856 3.7367 0.0000 -10593.3899 1410.8912 0.0000 0.0000 1775.6332 -7391.1357 302.6382 -9166.7690 -7391.1357 302.6382 -136.1293 -52.0558 30207.2160 -136.1293 -52.0558
ENERGY: 300000 2.0429 7.7391 2.4545 0.0000 -10453.1686 1282.2454 0.0000 0.0000 1766.8507 -7391.8360 301.1413 -9158.6867 -7412.8245 303.4324 -1389.9960 -1341.8345 30446.2338 -374.4959 -319.3974
ENERGY: 600000 0.8635 7.2681 1.3575 0.0000 -10741.9034 1468.3003 0.0000 0.0000 1756.0598 -7508.0542 299.3021 -9264.1140 -7430.1657 302.7646 102.2466 179.6030 29950.9858 -167.4343 -93.2102
ENERGY: 900000 4.3625 7.6881 3.0408 0.0000 -10577.5636 1412.8533 0.0000 0.0000 1787.3478 -7362.2712 304.6348 -9149.6190 -7428.1806 301.7447 -60.1602 -59.0470 30502.1361 -306.4789 -240.2195
ENERGY: 1200000 2.6902 7.4663 3.1613 0.0000 -10749.8518 1478.0177 0.0000 0.0000 1749.4587 -7509.0576 298.1770 -9258.5163 -7429.9198 301.1415 205.0190 242.4920 29993.5753 -309.7737 -244.9417
ENERGY: 1500000 2.0761 6.3288 5.9191 0.0000 -10765.1123 1472.8563 0.0000 0.0000 1718.9220 -7559.0101 292.9724 -9277.9321 -7434.8551 301.4198 -246.8294 -156.6378 30303.7444 -254.7647 -188.1866
TCL: Running FEP window   3: Lambda1 0.1    Lambda2 0.15000000000000002 [dLambda 0.05000000000000002]
TCL: Setting parameter firsttimestep to 0
TCL: Setting parameter alchLambda to 0.1
Info: NONBONDED TABLE R-SQUARED SPACING: 0.0625
Info: NONBONDED TABLE SIZE: 705 POINTS
TCL: Setting parameter alchLambda2 to 0.15000000000000002
Info: NONBONDED TABLE R-SQUARED SPACING: 0.0625
Info: NONBONDED TABLE SIZE: 705 POINTS
TCL: Running for 1500000 steps
ETITLE: TS BOND ANGLE DIHED IMPRP ELECT VDW BOUNDARY MISC KINETIC TOTAL TEMP POTENTIAL TOTALAVG TEMPAVG PRESSURE GPRESSURE VOLUME PRESSAVG GPRESSAVG
ENERGY: 0 2.0761 6.3288 5.9191 0.0000 -10765.1139 1475.1035 0.0000 0.0000 1718.0273 -7557.6592 292.8199 -9275.6865 -7557.6592 292.8199 -219.7023 -147.4627 30303.7444 -219.7023 -147.4627
ENERGY: 300000 1.1365 7.9154 2.0134 0.0000 -10671.8034 1437.9442 0.0000 0.0000 1753.7293 -7469.0645 298.9049 -9222.7938 -7465.9818 295.6159 -161.8825 -172.2140 30302.0940 -297.8541 -246.0807
ENERGY: 600000 5.1510 11.3176 4.7263 0.0000 -10762.9620 1482.6169 0.0000 0.0000 1749.9091 -7509.2411 298.2538 -9259.1501 -7481.5204 295.7872 398.1449 429.1434 29759.4836 -147.0578 -104.0048
ENERGY: 900000 1.3056 11.5579 7.7760 0.0000 -10669.0690 1397.4807 0.0000 0.0000 1769.1865 -7481.7623 301.5394 -9250.9488 -7468.2876 297.5545 -667.8837 -616.6558 30429.4884 -91.8922 -46.1957
ENERGY: 1200000 2.1741 12.1885 5.0709 0.0000 -10647.8931 1440.9355 0.0000 0.0000 1812.6818 -7374.8424 308.9527 -9187.5242 -7456.6393 299.5613 -42.7275 -30.9283 30312.4089 -42.9909 -3.5939
ENERGY: 1500000 3.6407 9.6194 2.6921 0.0000 -10667.0766 1424.4506 0.0000 0.0000 1792.1460 -7434.5278 305.4526 -9226.6738 -7450.7293 300.2252 -10.6629 -24.5230 30239.1216 -11.9910 24.7791
TCL: Running FEP window   4: Lambda1 0.15000000000000002 Lambda2 0.2    [dLambda 0.04999999999999999]
TCL: Setting parameter firsttimestep to 0
TCL: Setting parameter alchLambda to 0.15000000000000002
Info: NONBONDED TABLE R-SQUARED SPACING: 0.0625
Info: NONBONDED TABLE SIZE: 705 POINTS
TCL: Setting parameter alchLambda2 to 0.2
Info: NONBONDED TABLE R-SQUARED SPACING: 0.0625
Info: NONBONDED TABLE SIZE: 705 POINTS
TCL: Running for 1500000 steps
ETITLE: TS BOND ANGLE DIHED IMPRP ELECT VDW BOUNDARY MISC KINETIC TOTAL TEMP POTENTIAL TOTALAVG TEMPAVG PRESSURE GPRESSURE VOLUME PRESSAVG GPRESSAVG
ENERGY: 0 3.6407 9.6194 2.6921 0.0000 -10667.0771 1426.9224 0.0000 0.0000 1791.2770 -7432.9255 305.3045 -9224.2025 -7432.9255 305.3045 -101.9851 -12.0675 30239.1216 -101.9851 -12.0675
ENERGY: 300000 1.9822 8.5557 3.0838 0.0000 -10618.3500 1375.6829 0.0000 0.0000 1759.8833 -7469.1622 299.9538 -9229.0455 -7446.2751 295.5388 -762.1394 -724.8143 30517.0971 -148.4202 -97.0245
ENERGY: 600000 2.5149 11.4657 5.8423 0.0000 -10723.9151 1491.2377 0.0000 0.0000 1771.9125 -7440.9420 302.0040 -9212.8545 -7433.5833 298.4481 -53.2059 53.1939 30767.0413 -62.7622 8.3752
ENERGY: 900000 5.2147 9.4880 1.8546 0.0000 -10757.9477 1508.9844 0.0000 0.0000 1751.4350 -7480.9709 298.5139 -9232.4060 -7441.3068 298.9538 738.8019 756.5919 29733.8709 -19.3619 35.9796
ENERGY: 1200000 2.5328 8.8501 4.0125 0.0000 -10658.2095 1422.8454 0.0000 0.0000 1796.8077 -7423.1611 306.2472 -9219.9688 -7434.3662 299.8939 -212.7984 -137.2941 30448.7463 2.5057 59.5102
ENERGY: 1500000 1.0367 13.2872 4.6397 0.0000 -10595.0697 1402.3029 0.0000 0.0000 1744.2814 -7429.5219 297.2946 -9173.8032 -7428.6238 300.1796 -364.2430 -337.1590 30472.8489 50.1160 97.4915
TCL: Running FEP window   5: Lambda1 0.2    Lambda2 0.25   [dLambda 0.04999999999999999]
TCL: Setting parameter firsttimestep to 0
TCL: Setting parameter alchLambda to 0.2
Info: NONBONDED TABLE R-SQUARED SPACING: 0.0625
Info: NONBONDED TABLE SIZE: 705 POINTS
TCL: Setting parameter alchLambda2 to 0.25
Info: NONBONDED TABLE R-SQUARED SPACING: 0.0625
Info: NONBONDED TABLE SIZE: 705 POINTS
TCL: Running for 1500000 steps
ETITLE: TS BOND ANGLE DIHED IMPRP ELECT VDW BOUNDARY MISC KINETIC TOTAL TEMP POTENTIAL TOTALAVG TEMPAVG PRESSURE GPRESSURE VOLUME PRESSAVG GPRESSAVG
ENERGY: 0 1.0367 13.2872 4.6397 0.0000 -10595.0697 1403.6013 0.0000 0.0000 1743.3795 -7429.1254 297.1409 -9172.5049 -7429.1254 297.1409 -415.2817 -328.4271 30472.8489 -415.2817 -328.4271
ENERGY: 300000 2.9065 9.3101 1.7883 0.0000 -10632.5028 1479.9531 0.0000 0.0000 1707.9106 -7430.6342 291.0956 -9138.5448 -7398.7403 300.5738 330.8027 409.1028 30220.2944 38.8584 116.8420
ENERGY: 600000 6.3982 8.0682 5.8283 0.0000 -10632.6469 1435.5303 0.0000 0.0000 1729.8666 -7446.9554 294.8377 -9176.8219 -7422.6773 298.7633 -91.4394 -23.9352 30406.9747 -108.1995 -44.8045
ENERGY: 900000 4.4378 8.4937 4.8251 0.0000 -10694.2905 1477.6359 0.0000 0.0000 1742.5058 -7456.3922 296.9920 -9198.8980 -7435.3430 298.4497 -83.7553 1.7150 30574.6467 -79.0742 -11.6872
ENERGY: 1200000 1.1069 10.4457 1.4960 0.0000 -10635.2682 1421.8429 0.0000 0.0000 1775.5402 -7424.8366 302.6224 -9200.3768 -7432.7582 298.3914 -115.1801 5.1651 30328.5844 -141.3671 -73.9830
ENERGY: 1500000 5.6583 12.5956 2.6774 0.0000 -10792.1680 1490.8806 0.0000 0.0000 1751.8667 -7528.4893 298.5874 -9280.3560 -7440.5719 298.5727 167.7098 280.9301 29920.1327 -68.6353 2.8530
TCL: Running FEP window   6: Lambda1 0.25   Lambda2 0.3    [dLambda 0.04999999999999999]
TCL: Setting parameter firsttimestep to 0
TCL: Setting parameter alchLambda to 0.25
Info: NONBONDED TABLE R-SQUARED SPACING: 0.0625
Info: NONBONDED TABLE SIZE: 705 POINTS
TCL: Setting parameter alchLambda2 to 0.3
Info: NONBONDED TABLE R-SQUARED SPACING: 0.0625
Info: NONBONDED TABLE SIZE: 705 POINTS
TCL: Running for 1500000 steps
ETITLE: TS BOND ANGLE DIHED IMPRP ELECT VDW BOUNDARY MISC KINETIC TOTAL TEMP POTENTIAL TOTALAVG TEMPAVG PRESSURE GPRESSURE VOLUME PRESSAVG GPRESSAVG
ENERGY: 0 5.6583 12.5956 2.6774 0.0000 -10792.1674 1491.5821 0.0000 0.0000 1751.0229 -7528.6311 298.4436 -9279.6540 -7528.6311 298.4436 199.6647 289.5881 29920.1327 199.6647 289.5881
ENERGY: 300000 1.8144 12.7920 2.4941 0.0000 -10684.2964 1528.2071 0.0000 0.0000 1749.4652 -7389.5236 298.1781 -9138.9888 -7461.5733 297.3951 1055.1324 1098.8056 29798.9546 160.9731 255.3926
ENERGY: 600000 2.1222 10.5552 6.0398 0.0000 -10649.3118 1479.8819 0.0000 0.0000 1789.4270 -7361.2858 304.9892 -9150.7127 -7418.1652 300.1157 487.2847 585.5937 30284.0015 93.3539 182.3126
ENERGY: 900000 2.6390 5.6434 5.3856 0.0000 -10604.3934 1437.9220 0.0000 0.0000 1725.2184 -7427.5850 294.0455 -9152.8034 -7421.5669 300.2407 113.4598 108.3444 30534.3263 -20.6669 61.5121
ENERGY: 1200000 1.0830 8.3115 3.3607 0.0000 -10633.7859 1414.8917 0.0000 0.0000 1765.4797 -7440.6593 300.9076 -9206.1390 -7417.4586 300.0972 -230.9069 -98.9777 30186.7757 -75.7037 12.6787
ENERGY: 1500000 2.0614 9.1093 5.1347 0.0000 -10619.9176 1439.1913 0.0000 0.0000 1795.7202 -7368.7006 306.0618 -9164.4208 -7420.3687 300.8854 300.3018 314.7358 29808.6060 -56.4563 20.6350
TCL: Running FEP window   7: Lambda1 0.3    Lambda2 0.35   [dLambda 0.04999999999999999]
TCL: Setting parameter firsttimestep to 0
TCL: Setting parameter alchLambda to 0.3
Info: NONBONDED TABLE R-SQUARED SPACING: 0.0625
Info: NONBONDED TABLE SIZE: 705 POINTS
TCL: Setting parameter alchLambda2 to 0.35
Info: NONBONDED TABLE R-SQUARED SPACING: 0.0625
Info: NONBONDED TABLE SIZE: 705 POINTS
TCL: Running for 1500000 steps
ETITLE: TS BOND ANGLE DIHED IMPRP ELECT VDW BOUNDARY MISC KINETIC TOTAL TEMP POTENTIAL TOTALAVG TEMPAVG PRESSURE GPRESSURE VOLUME PRESSAVG GPRESSAVG
ENERGY: 0 2.0614 9.1093 5.1347 0.0000 -10619.9167 1439.0915 0.0000 0.0000 1794.8191 -7369.7007 305.9082 -9164.5198 -7369.7007 305.9082 238.1951 323.0071 29808.6060 238.1951 323.0071
ENERGY: 300000 3.9936 11.4862 5.2599 0.0000 -10737.6565 1445.4779 0.0000 0.0000 1755.1581 -7516.2807 299.1484 -9271.4388 -7467.9970 299.2794 -98.7774 -19.0321 30071.3226 31.6126 109.5052
ENERGY: 600000 2.5666 6.4155 2.8749 0.0000 -10608.1833 1452.0059 0.0000 0.0000 1755.3325 -7388.9879 299.1782 -9144.3204 -7451.0510 298.5774 258.2149 284.2545 30400.0461 -80.0460 -21.7674
ENERGY: 900000 3.1985 13.0347 3.5039 0.0000 -10716.5883 1486.5848 0.0000 0.0000 1747.0232 -7463.2433 297.7619 -9210.2665 -7450.8086 298.5317 346.1852 410.9407 30078.6497 -20.3551 36.4065
ENERGY: 1200000 2.1542 10.5349 3.9470 0.0000 -10625.9322 1442.5819 0.0000 0.0000 1746.0432 -7420.6710 297.5949 -9166.7142 -7434.5758 298.6585 371.9917 452.4321 30116.2428 28.3995 86.7308
ENERGY: 1500000 3.1480 7.7515 3.3310 0.0000 -10623.4460 1361.1223 0.0000 0.0000 1780.2932 -7467.8001 303.4324 -9248.0933 -7436.1737 298.8085 -406.7121 -385.2958 30135.8947 -5.8928 54.9344
TCL: Running FEP window   8: Lambda1 0.35   Lambda2 0.39999999999999997 [dLambda 0.04999999999999999]
TCL: Setting parameter firsttimestep to 0
TCL: Setting parameter alchLambda to 0.35
Info: NONBONDED TABLE R-SQUARED SPACING: 0.0625
Info: NONBONDED TABLE SIZE: 705 POINTS
TCL: Setting parameter alchLambda2 to 0.39999999999999997
Info: NONBONDED TABLE R-SQUARED SPACING: 0.0625
Info: NONBONDED TABLE SIZE: 705 POINTS
TCL: Running for 1500000 steps
ETITLE: TS BOND ANGLE DIHED IMPRP ELECT VDW BOUNDARY MISC KINETIC TOTAL TEMP POTENTIAL TOTALAVG TEMPAVG PRESSURE GPRESSURE VOLUME PRESSAVG GPRESSAVG
ENERGY: 0 3.1480 7.7515 3.3310 0.0000 -10623.4463 1360.5330 0.0000 0.0000 1779.4484 -7469.2345 303.2885 -9248.6828 -7469.2345 303.2885 -477.5921 -383.2484 30135.8947 -477.5921 -383.2484
ENERGY: 300000 4.2542 10.7057 2.9433 0.0000 -10548.7008 1416.8026 0.0000 0.0000 1702.8362 -7411.1588 290.2307 -9113.9950 -7459.8642 298.4375 -151.6847 -73.5500 30589.8011 127.2913 199.1814
ENERGY: 600000 3.5204 6.8440 6.0620 0.0000 -10498.8285 1322.2117 0.0000 0.0000 1744.0826 -7416.1078 297.2607 -9160.1903 -7442.3125 299.0664 -662.2176 -634.7875 30131.0521 -233.7845 -183.2119
ENERGY: 900000 2.5745 8.7829 2.5921 0.0000 -10770.4974 1488.8213 0.0000 0.0000 1765.7652 -7501.9614 300.9563 -9267.7266 -7447.1860 299.8021 69.3273 163.9717 30459.0935 -277.5514 -217.9890
ENERGY: 1200000 1.0979 9.8342 3.4337 0.0000 -10624.3429 1445.0629 0.0000 0.0000 1758.5766 -7406.3375 299.7311 -9164.9141 -7433.3928 299.4279 230.5846 314.3483 29951.7937 -180.2930 -119.1292
ENERGY: 1500000 0.5376 6.3640 4.8628 0.0000 -10392.9419 1340.8880 0.0000 0.0000 1842.5623 -7197.7271 314.0456 -9040.2894 -7422.7050 300.1412 -387.6404 -371.4152 30925.8559 -196.9504 -133.3894
TCL: Running FEP window   9: Lambda1 0.39999999999999997 Lambda2 0.44999999999999996 [dLambda 0.04999999999999999]
TCL: Setting parameter firsttimestep to 0
TCL: Setting parameter alchLambda to 0.39999999999999997
Info: NONBONDED TABLE R-SQUARED SPACING: 0.0625
Info: NONBONDED TABLE SIZE: 705 POINTS
TCL: Setting parameter alchLambda2 to 0.44999999999999996
Info: NONBONDED TABLE R-SQUARED SPACING: 0.0625
Info: NONBONDED TABLE SIZE: 705 POINTS
TCL: Running for 1500000 steps
ETITLE: TS BOND ANGLE DIHED IMPRP ELECT VDW BOUNDARY MISC KINETIC TOTAL TEMP POTENTIAL TOTALAVG TEMPAVG PRESSURE GPRESSURE VOLUME PRESSAVG GPRESSAVG
ENERGY: 0 0.5376 6.3640 4.8628 0.0000 -10392.9425 1340.3662 0.0000 0.0000 1841.6754 -7199.1364 313.8944 -9040.8118 -7199.1364 313.8944 -439.4659 -373.6864 30925.8559 -439.4659 -373.6864
ENERGY: 300000 4.6349 10.2236 5.3178 0.0000 -10719.4751 1469.4475 0.0000 0.0000 1791.7266 -7438.1246 305.3812 -9229.8512 -7372.0984 308.4944 144.3608 186.4179 30117.9908 -15.3613 36.4037
ENERGY: 600000 1.4921 12.2805 3.0459 0.0000 -10637.1196 1488.3459 0.0000 0.0000 1806.3493 -7325.6060 307.8734 -9131.9553 -7389.2150 304.6408 941.2646 1002.2838 30001.9173 -21.7300 32.9401
ENERGY: 900000 2.1240 7.4649 3.2733 0.0000 -10583.9802 1373.3382 0.0000 0.0000 1780.6212 -7417.1586 303.4883 -9197.7798 -7396.1107 304.3933 -360.9995 -305.4662 30012.5988 30.7467 85.2696
ENERGY: 1200000 2.1291 5.0987 5.4122 0.0000 -10537.1370 1327.6451 0.0000 0.0000 1741.8675 -7454.9844 296.8832 -9196.8519 -7403.7929 303.0945 -1198.0722 -1130.3008 30967.4882 -19.9965 36.6018
ENERGY: 1500000 2.2620 7.2720 3.1008 0.0000 -10570.0452 1362.4697 0.0000 0.0000 1761.1831 -7433.7576 300.1753 -9194.9407 -7404.8650 302.6927 -616.3450 -505.5701 30408.2075 -83.6197 -21.3914
TCL: Running FEP window  10: Lambda1 0.44999999999999996 Lambda2 0.49999999999999994 [dLambda 0.04999999999999999]
TCL: Setting parameter firsttimestep to 0
TCL: Setting parameter alchLambda to 0.44999999999999996
Info: NONBONDED TABLE R-SQUARED SPACING: 0.0625
Info: NONBONDED TABLE SIZE: 705 POINTS
TCL: Setting parameter alchLambda2 to 0.49999999999999994
Info: NONBONDED TABLE R-SQUARED SPACING: 0.0625
Info: NONBONDED TABLE SIZE: 705 POINTS
TCL: Running for 1500000 steps
ETITLE: TS BOND ANGLE DIHED IMPRP ELECT VDW BOUNDARY MISC KINETIC TOTAL TEMP POTENTIAL TOTALAVG TEMPAVG PRESSURE GPRESSURE VOLUME PRESSAVG GPRESSAVG
ENERGY: 0 2.2620 7.2720 3.1008 0.0000 -10570.0468 1362.1696 0.0000 0.0000 1760.3042 -7434.9382 300.0255 -9195.2424 -7434.9382 300.0255 -573.0717 -498.2369 30408.2075 -573.0717 -498.2369
ENERGY: 300000 1.1837 11.5953 2.4454 0.0000 -10552.5075 1353.2578 0.0000 0.0000 1776.4784 -7407.5469 302.7823 -9184.0253 -7428.4350 302.4555 -641.9927 -587.0694 30414.8028 -125.5365 -63.6434
ENERGY: 600000 3.7105 9.5630 3.5908 0.0000 -10611.3451 1370.0670 0.0000 0.0000 1770.8330 -7453.5808 301.8200 -9224.4138 -7450.6332 301.2725 -723.7163 -685.8377 30356.5220 -271.2665 -211.7372
ENERGY: 900000 0.3897 9.8069 3.1712 0.0000 -10628.2418 1415.1576 0.0000 0.0000 1759.8627 -7439.8538 299.9503 -9199.7165 -7445.3195 300.8927 -99.4571 -27.9943 30326.0111 -307.3726 -238.7168
ENERGY: 1200000 1.1349 10.7472 5.2337 0.0000 -10555.5120 1379.5237 0.0000 0.0000 1728.6435 -7430.2291 294.6293 -9158.8725 -7445.4184 299.9243 -257.3828 -177.0230 30216.8502 -209.7725 -138.4372
ENERGY: 1500000 1.4738 6.9318 2.8271 0.0000 -10653.8786 1483.8201 0.0000 0.0000 1752.8705 -7405.9553 298.7585 -9158.8258 -7446.5374 300.0783 418.3302 447.4573 30376.9389 -128.2137 -59.5037
TCL: Running FEP window  11: Lambda1 0.49999999999999994 Lambda2 0.5499999999999999 [dLambda 0.04999999999999999]
TCL: Setting parameter firsttimestep to 0
TCL: Setting parameter alchLambda to 0.49999999999999994
Info: NONBONDED TABLE R-SQUARED SPACING: 0.0625
Info: NONBONDED TABLE SIZE: 705 POINTS
TCL: Setting parameter alchLambda2 to 0.5499999999999999
Info: NONBONDED TABLE R-SQUARED SPACING: 0.0625
Info: NONBONDED TABLE SIZE: 705 POINTS
TCL: Running for 1500000 steps
ETITLE: TS BOND ANGLE DIHED IMPRP ELECT VDW BOUNDARY MISC KINETIC TOTAL TEMP POTENTIAL TOTALAVG TEMPAVG PRESSURE GPRESSURE VOLUME PRESSAVG GPRESSAVG
ENERGY: 0 1.4738 6.9318 2.8271 0.0000 -10653.8795 1483.0945 0.0000 0.0000 1751.9834 -7407.5690 298.6073 -9159.5523 -7407.5690 298.6073 376.2741 447.9483 30376.9389 376.2741 447.9483
ENERGY: 300000 2.1358 10.4744 4.6254 0.0000 -10599.4029 1373.0023 0.0000 0.0000 1788.5572 -7420.6078 304.8410 -9209.1650 -7397.0105 300.7678 -541.5555 -417.8309 30449.5350 -30.0172 46.0729
ENERGY: 600000 4.3315 14.5821 3.1074 0.0000 -10673.6709 1446.7785 0.0000 0.0000 1777.4692 -7427.4021 302.9511 -9204.8714 -7425.3636 301.5268 101.0883 67.9918 30243.4670 -11.5683 32.4934
ENERGY: 900000 5.2600 9.6631 3.3734 0.0000 -10488.3793 1379.7589 0.0000 0.0000 1756.8266 -7333.4972 299.4328 -9090.3239 -7425.2793 300.2973 -77.4006 -27.5817 30364.8488 -178.2524 -128.7331
ENERGY: 1200000 2.3271 12.0751 4.1019 0.0000 -10692.9616 1495.8986 0.0000 0.0000 1772.4086 -7406.1502 302.0886 -9178.5588 -7435.9005 299.6118 553.8431 616.2392 30065.8879 -30.9337 24.5582
ENERGY: 1500000 2.7402 7.4333 4.2041 0.0000 -10620.8790 1408.3451 0.0000 0.0000 1787.3032 -7410.8533 304.6272 -9198.1564 -7438.3418 300.4182 -218.8615 -158.9993 30053.1249 -82.1470 -28.0188
TCL: Running FEP window  12: Lambda1 0.5499999999999999 Lambda2 0.6    [dLambda 0.050000000000000044]
TCL: Setting parameter firsttimestep to 0
TCL: Setting parameter alchLambda to 0.5499999999999999
Info: NONBONDED TABLE R-SQUARED SPACING: 0.0625
Info: NONBONDED TABLE SIZE: 705 POINTS
TCL: Setting parameter alchLambda2 to 0.6
Info: NONBONDED TABLE R-SQUARED SPACING: 0.0625
Info: NONBONDED TABLE SIZE: 705 POINTS
TCL: Running for 1500000 steps
ETITLE: TS BOND ANGLE DIHED IMPRP ELECT VDW BOUNDARY MISC KINETIC TOTAL TEMP POTENTIAL TOTALAVG TEMPAVG PRESSURE GPRESSURE VOLUME PRESSAVG GPRESSAVG
ENERGY: 0 2.7402 7.4333 4.2041 0.0000 -10620.8003 1408.3233 0.0000 0.0000 1786.4195 -7411.6799 304.4766 -9198.0994 -7411.6799 304.4766 -209.1655 -149.3146 30053.1249 -209.1655 -149.3146
ENERGY: 300000 1.5999 10.8333 3.4753 0.0000 -10723.8410 1401.4828 0.0000 0.0000 1745.4580 -7560.9916 297.4952 -9306.4496 -7466.7421 299.7831 -698.9100 -611.0903 30432.0994 174.0297 239.3986
ENERGY: 600000 2.5543 12.1449 3.0660 0.0000 -10610.9350 1383.6854 0.0000 0.0000 1797.9753 -7411.5092 306.4462 -9209.4844 -7446.5325 301.9079 -464.1062 -414.4289 30294.4718 -125.7154 -51.9336
ENERGY: 900000 2.7743 11.7943 5.2267 0.0000 -10698.7413 1499.4271 0.0000 0.0000 1740.1895 -7439.3294 296.5972 -9179.5189 -7444.4490 300.7460 722.7516 784.1822 29913.8012 -112.8061 -36.9127
ENERGY: 1200000 1.7737 9.6532 3.9626 0.0000 -10659.2391 1446.0201 0.0000 0.0000 1787.7217 -7410.1077 304.6986 -9197.8294 -7443.8270 300.4155 56.8351 78.1536 30594.3774 -108.6442 -31.0284
ENERGY: 1500000 2.1336 11.0919 3.4304 0.0000 -10732.0767 1470.2722 0.0000 0.0000 1735.1837 -7509.9648 295.7440 -9245.1485 -7453.1046 299.9386 100.0865 215.2931 30289.0653 -76.9463 0.5186
TCL: Running FEP window  13: Lambda1 0.6    Lambda2 0.65   [dLambda 0.050000000000000044]
TCL: Setting parameter firsttimestep to 0
TCL: Setting parameter alchLambda to 0.6
Info: NONBONDED TABLE R-SQUARED SPACING: 0.0625
Info: NONBONDED TABLE SIZE: 705 POINTS
TCL: Setting parameter alchLambda2 to 0.65
Info: NONBONDED TABLE R-SQUARED SPACING: 0.0625
Info: NONBONDED TABLE SIZE: 705 POINTS
TCL: Running for 1500000 steps
ETITLE: TS BOND ANGLE DIHED IMPRP ELECT VDW BOUNDARY MISC KINETIC TOTAL TEMP POTENTIAL TOTALAVG TEMPAVG PRESSURE GPRESSURE VOLUME PRESSAVG GPRESSAVG
ENERGY: 0 2.1336 11.0919 3.4305 0.0000 -10732.3091 1470.2125 0.0000 0.0000 1734.3281 -7511.1126 295.5982 -9245.4407 -7511.1126 295.5982 135.1219 221.5990 30289.0653 135.1219 221.5990
ENERGY: 300000 1.8390 8.9818 2.0370 0.0000 -10711.7245 1422.0671 0.0000 0.0000 1778.2326 -7498.5670 303.0812 -9276.7996 -7500.1434 295.9037 98.0514 188.3495 29701.2293 -155.5928 -73.7342
ENERGY: 600000 1.6877 11.0098 1.7831 0.0000 -10531.7230 1317.5777 0.0000 0.0000 1788.1094 -7411.5552 304.7646 -9199.6646 -7461.9368 298.6060 -823.9955 -771.4035 30433.0956 -144.3792 -86.0525
ENERGY: 900000 4.1499 7.4358 1.5921 0.0000 -10666.6548 1400.0178 0.0000 0.0000 1753.3278 -7500.1313 298.8365 -9253.4592 -7463.5628 298.1971 -603.1523 -524.4203 30408.3298 -187.9589 -131.2747
ENERGY: 1200000 1.4187 12.8285 3.7626 0.0000 -10634.5369 1354.5222 0.0000 0.0000 1775.4660 -7486.5389 302.6097 -9262.0049 -7466.7945 298.0086 -661.9006 -616.0521 30127.4532 -144.6771 -88.4032
ENERGY: 1500000 2.6476 16.0604 2.8920 0.0000 -10557.0335 1395.2608 0.0000 0.0000 1712.9541 -7427.2186 291.9552 -9140.1727 -7453.7094 298.2280 -196.0683 -34.6586 30175.7579 -107.3211 -43.6916
TCL: Running FEP window  14: Lambda1 0.65   Lambda2 0.7000000000000001 [dLambda 0.050000000000000044]
TCL: Setting parameter firsttimestep to 0
TCL: Setting parameter alchLambda to 0.65
Info: NONBONDED TABLE R-SQUARED SPACING: 0.0625
Info: NONBONDED TABLE SIZE: 705 POINTS
TCL: Setting parameter alchLambda2 to 0.7000000000000001
Info: NONBONDED TABLE R-SQUARED SPACING: 0.0625
Info: NONBONDED TABLE SIZE: 705 POINTS
TCL: Running for 1500000 steps
ETITLE: TS BOND ANGLE DIHED IMPRP ELECT VDW BOUNDARY MISC KINETIC TOTAL TEMP POTENTIAL TOTALAVG TEMPAVG PRESSURE GPRESSURE VOLUME PRESSAVG GPRESSAVG
ENERGY: 0 2.6476 16.0604 2.8920 0.0000 -10557.4278 1396.4775 0.0000 0.0000 1712.1068 -7427.2434 291.8108 -9139.3502 -7427.2434 291.8108 -111.4885 -11.4144 30175.7579 -111.4885 -11.4144
ENERGY: 300000 2.1253 7.4652 3.6465 0.0000 -10577.7544 1440.2691 0.0000 0.0000 1693.1631 -7431.0852 288.5820 -9124.2482 -7448.5265 293.6206 163.8300 244.2979 30611.1772 -159.0067 -97.4644
ENERGY: 600000 4.0496 14.6322 4.1112 0.0000 -10788.4498 1520.5416 0.0000 0.0000 1784.6983 -7460.4170 304.1832 -9245.1153 -7466.3755 295.5532 658.7447 743.3620 30237.6160 92.6442 167.7299
ENERGY: 900000 2.7152 12.0638 3.9652 0.0000 -10655.8573 1458.3604 0.0000 0.0000 1776.2204 -7402.5324 302.7383 -9178.7528 -7461.9671 297.7221 320.6126 341.3766 30241.5533 59.5817 123.4758
ENERGY: 1200000 3.6026 10.6457 4.3738 0.0000 -10491.6510 1370.8778 0.0000 0.0000 1728.7270 -7373.4241 294.6435 -9102.1511 -7440.5326 298.5280 -463.8207 -383.9275 30404.2315 97.6675 159.1721
ENERGY: 1500000 2.7821 11.5715 2.7236 0.0000 -10593.1354 1353.0498 0.0000 0.0000 1772.0110 -7450.9974 302.0208 -9223.0084 -7446.2090 298.1687 -757.7994 -677.1219 30427.3348 8.7497 69.0564
TCL: Running FEP window  15: Lambda1 0.7000000000000001 Lambda2 0.7500000000000001 [dLambda 0.050000000000000044]
TCL: Setting parameter firsttimestep to 0
TCL: Setting parameter alchLambda to 0.7000000000000001
Info: NONBONDED TABLE R-SQUARED SPACING: 0.0625
Info: NONBONDED TABLE SIZE: 705 POINTS
TCL: Setting parameter alchLambda2 to 0.7500000000000001
Info: NONBONDED TABLE R-SQUARED SPACING: 0.0625
Info: NONBONDED TABLE SIZE: 705 POINTS
TCL: Running for 1500000 steps
ETITLE: TS BOND ANGLE DIHED IMPRP ELECT VDW BOUNDARY MISC KINETIC TOTAL TEMP POTENTIAL TOTALAVG TEMPAVG PRESSURE GPRESSURE VOLUME PRESSAVG GPRESSAVG
ENERGY: 0 2.7821 11.5715 2.7236 0.0000 -10593.1082 1353.2880 0.0000 0.0000 1771.1326 -7451.6104 301.8711 -9222.7430 -7451.6104 301.8711 -762.5063 -661.7519 30427.3348 -762.5063 -661.7519
ENERGY: 300000 1.7797 6.2262 2.9449 0.0000 -10685.1372 1436.7345 0.0000 0.0000 1830.5856 -7406.8662 312.0043 -9237.4518 -7397.8157 303.9746 76.6999 97.9029 30456.3895 -154.2726 -88.4970
ENERGY: 600000 2.4439 10.7478 4.7437 0.0000 -10562.6817 1406.5890 0.0000 0.0000 1734.4169 -7403.7405 295.6133 -9138.1574 -7403.2670 301.2241 -54.3073 32.4555 30125.1596 -163.7555 -89.5300
ENERGY: 900000 2.7111 7.6713 2.3612 0.0000 -10740.8606 1500.2124 0.0000 0.0000 1726.3607 -7501.5439 294.2402 -9227.9046 -7412.4625 301.0640 833.3568 833.5858 29711.7806 -123.0980 -52.0615
ENERGY: 1200000 3.7171 9.1954 3.5654 0.0000 -10616.4415 1423.7546 0.0000 0.0000 1762.7966 -7413.4125 300.4503 -9176.2091 -7421.3619 300.1276 170.1059 238.1298 30044.6981 -103.4776 -28.8139
ENERGY: 1500000 4.5536 9.2595 3.6031 0.0000 -10543.2736 1358.8286 0.0000 0.0000 1770.0864 -7396.9423 301.6928 -9167.0288 -7418.7665 300.8638 -784.4029 -666.2490 30602.5182 -160.6193 -82.0175
TCL: Running FEP window  16: Lambda1 0.7500000000000001 Lambda2 0.8000000000000002 [dLambda 0.050000000000000044]
TCL: Setting parameter firsttimestep to 0
TCL: Setting parameter alchLambda to 0.7500000000000001
Info: NONBONDED TABLE R-SQUARED SPACING: 0.0625
Info: NONBONDED TABLE SIZE: 705 POINTS
TCL: Setting parameter alchLambda2 to 0.8000000000000002
Info: NONBONDED TABLE R-SQUARED SPACING: 0.0625
Info: NONBONDED TABLE SIZE: 705 POINTS
TCL: Running for 1500000 steps
ETITLE: TS BOND ANGLE DIHED IMPRP ELECT VDW BOUNDARY MISC KINETIC TOTAL TEMP POTENTIAL TOTALAVG TEMPAVG PRESSURE GPRESSURE VOLUME PRESSAVG GPRESSAVG
ENERGY: 0 4.5536 9.2595 3.6031 0.0000 -10543.6615 1359.0142 0.0000 0.0000 1769.2377 -7397.9933 301.5482 -9167.2310 -7397.9933 301.5482 -748.9577 -656.0906 30602.5182 -748.9577 -656.0906
ENERGY: 300000 2.6529 10.7978 3.8925 0.0000 -10719.3540 1490.3972 0.0000 0.0000 1774.0984 -7437.5152 302.3766 -9211.6136 -7410.4083 302.4292 304.7488 406.9937 30582.6576 -461.1038 -355.7795
ENERGY: 600000 3.4905 12.1695 4.2242 0.0000 -10609.4183 1355.3641 0.0000 0.0000 1760.7472 -7473.4228 300.1010 -9234.1700 -7438.3426 300.4307 -335.3084 -261.1222 30050.8398 -538.9341 -462.2038
ENERGY: 900000 1.0912 6.2830 3.1100 0.0000 -10680.1341 1461.9462 0.0000 0.0000 1770.0391 -7437.6646 301.6847 -9207.7038 -7420.9999 302.6995 551.8406 612.5970 29858.6953 -274.0468 -205.4106
ENERGY: 1200000 3.0419 9.0645 5.7697 0.0000 -10719.5436 1478.4844 0.0000 0.0000 1770.5497 -7452.6333 301.7718 -9223.1830 -7426.3159 301.6696 518.5408 596.4052 29854.3464 -226.9746 -150.2387
ENERGY: 1500000 1.3760 5.9309 2.3954 0.0000 -10627.2478 1455.2611 0.0000 0.0000 1805.0462 -7357.2383 307.6513 -9162.2845 -7419.3055 302.2603 321.6587 425.1698 30319.4208 -150.4729 -70.8237
TCL: Running FEP window  17: Lambda1 0.8000000000000002 Lambda2 0.8500000000000002 [dLambda 0.050000000000000044]
TCL: Setting parameter firsttimestep to 0
TCL: Setting parameter alchLambda to 0.8000000000000002
Info: NONBONDED TABLE R-SQUARED SPACING: 0.0625
Info: NONBONDED TABLE SIZE: 705 POINTS
TCL: Setting parameter alchLambda2 to 0.8500000000000002
Info: NONBONDED TABLE R-SQUARED SPACING: 0.0625
Info: NONBONDED TABLE SIZE: 705 POINTS
TCL: Running for 1500000 steps
ETITLE: TS BOND ANGLE DIHED IMPRP ELECT VDW BOUNDARY MISC KINETIC TOTAL TEMP POTENTIAL TOTALAVG TEMPAVG PRESSURE GPRESSURE VOLUME PRESSAVG GPRESSAVG
ENERGY: 0 1.3760 5.9309 2.3954 0.0000 -10628.3483 1455.0051 0.0000 0.0000 1804.1417 -7359.4991 307.4972 -9163.6408 -7359.4991 307.4972 365.3832 431.7263 30319.4208 365.3832 431.7263
ENERGY: 300000 2.3456 9.4261 3.9570 0.0000 -10713.7894 1457.5082 0.0000 0.0000 1756.0622 -7484.4904 299.3025 -9240.5526 -7424.8508 298.8334 128.2359 158.0606 30198.0354 486.5321 563.2772
ENERGY: 600000 2.1076 7.4737 5.3855 0.0000 -10660.5640 1393.1630 0.0000 0.0000 1768.6609 -7483.7734 301.4498 -9252.4343 -7429.4295 301.2891 -221.2985 -210.4654 30269.5987 215.0147 281.7648
ENERGY: 900000 5.2445 7.9796 4.1146 0.0000 -10542.0936 1417.0677 0.0000 0.0000 1745.9000 -7361.7872 297.5705 -9107.6871 -7415.0429 301.4140 -31.7563 2.6606 30633.1213 142.0204 209.9031
ENERGY: 1200000 2.0225 8.5160 2.6444 0.0000 -10734.3812 1479.0357 0.0000 0.0000 1719.2269 -7522.9358 293.0243 -9242.1626 -7428.4361 301.3375 125.0914 152.3443 30636.2823 107.9268 177.8837
ENERGY: 1500000 3.3117 10.1385 3.0110 0.0000 -10688.5791 1445.0308 0.0000 0.0000 1759.5461 -7467.5411 299.8963 -9227.0872 -7435.8411 301.1035 25.0438 75.3916 30651.4308 132.4673 197.5247
TCL: Running FEP window  18: Lambda1 0.8500000000000002 Lambda2 0.9000000000000002 [dLambda 0.050000000000000044]
TCL: Setting parameter firsttimestep to 0
TCL: Setting parameter alchLambda to 0.8500000000000002
Info: NONBONDED TABLE R-SQUARED SPACING: 0.0625
Info: NONBONDED TABLE SIZE: 705 POINTS
TCL: Setting parameter alchLambda2 to 0.9000000000000002
Info: NONBONDED TABLE R-SQUARED SPACING: 0.0625
Info: NONBONDED TABLE SIZE: 705 POINTS
TCL: Running for 1500000 steps
ETITLE: TS BOND ANGLE DIHED IMPRP ELECT VDW BOUNDARY MISC KINETIC TOTAL TEMP POTENTIAL TOTALAVG TEMPAVG PRESSURE GPRESSURE VOLUME PRESSAVG GPRESSAVG
ENERGY: 0 3.3117 10.1385 3.0110 0.0000 -10689.8839 1445.1794 0.0000 0.0000 1758.6949 -7469.5486 299.7512 -9228.2434 -7469.5486 299.7512 13.5647 85.5529 30651.4308 13.5647 85.5529
ENERGY: 300000 1.3987 10.9764 3.6363 0.0000 -10627.7818 1407.3512 0.0000 0.0000 1784.1231 -7420.2962 304.0852 -9204.4192 -7456.5899 301.8656 -214.7417 -114.4674 30239.4457 -126.9768 -47.4802
ENERGY: 600000 1.4939 7.7141 4.5524 0.0000 -10512.0795 1359.4478 0.0000 0.0000 1707.7321 -7431.1392 291.0652 -9138.8713 -7442.3601 299.6820 -656.4604 -598.2595 30927.9790 -319.3793 -230.5501
ENERGY: 900000 2.5174 9.7712 3.5999 0.0000 -10586.0108 1401.7079 0.0000 0.0000 1745.7932 -7422.6212 297.5523 -9168.4144 -7457.5885 298.8736 40.8911 108.6172 30052.2557 -98.3597 -21.2809
ENERGY: 1200000 2.6338 9.5206 4.1778 0.0000 -10729.8440 1483.3973 0.0000 0.0000 1735.7645 -7494.3499 295.8430 -9230.1144 -7464.7137 297.8348 217.3721 279.1337 30482.0375 -44.2188 23.0617
ENERGY: 1500000 3.1343 7.1531 4.9023 0.0000 -10578.3361 1397.0871 0.0000 0.0000 1728.7881 -7437.2714 294.6539 -9166.0594 -7465.1710 298.4528 -449.0720 -371.3371 30744.3548 -44.0039 19.9691
TCL: Running FEP window  19: Lambda1 0.9000000000000002 Lambda2 0.9500000000000003 [dLambda 0.050000000000000044]
TCL: Setting parameter firsttimestep to 0
TCL: Setting parameter alchLambda to 0.9000000000000002
Info: NONBONDED TABLE R-SQUARED SPACING: 0.0625
Info: NONBONDED TABLE SIZE: 705 POINTS
TCL: Setting parameter alchLambda2 to 0.9500000000000003
Info: NONBONDED TABLE R-SQUARED SPACING: 0.0625
Info: NONBONDED TABLE SIZE: 705 POINTS
TCL: Running for 1500000 steps
ETITLE: TS BOND ANGLE DIHED IMPRP ELECT VDW BOUNDARY MISC KINETIC TOTAL TEMP POTENTIAL TOTALAVG TEMPAVG PRESSURE GPRESSURE VOLUME PRESSAVG GPRESSAVG
ENERGY: 0 3.1343 7.1531 4.9023 0.0000 -10579.8993 1397.6221 0.0000 0.0000 1727.9141 -7439.1735 294.5050 -9167.0876 -7439.1735 294.5050 -432.9005 -352.6299 30744.3548 -432.9005 -352.6299
ENERGY: 300000 1.2149 7.1664 3.9638 0.0000 -10811.2545 1512.9928 0.0000 0.0000 1765.8748 -7520.0419 300.9750 -9285.9167 -7479.6063 298.9302 469.9232 546.0821 30305.5471 89.8693 174.0927
ENERGY: 600000 2.3965 7.2504 3.7752 0.0000 -10600.5328 1396.5010 0.0000 0.0000 1808.1580 -7382.4517 308.1817 -9190.6096 -7443.0574 301.0344 -181.8469 -87.3329 30752.5627 87.5323 162.9351
ENERGY: 900000 1.1686 13.7842 3.2871 0.0000 -10824.2375 1469.3590 0.0000 0.0000 1815.1343 -7521.5042 309.3707 -9336.6386 -7453.4705 302.3165 136.7638 213.3379 29846.6653 -37.6815 34.1318
ENERGY: 1200000 0.8854 8.9217 3.1813 0.0000 -10662.5889 1428.7211 0.0000 0.0000 1703.4654 -7517.4139 290.3379 -9220.8793 -7452.9683 300.9916 -107.1875 33.3148 30168.3729 -105.7175 -32.4231
ENERGY: 1500000 3.3546 11.2705 2.4741 0.0000 -10594.7191 1391.3526 0.0000 0.0000 1801.7739 -7384.4934 307.0936 -9186.2673 -7450.6446 300.6635 -5.7630 107.6705 30234.8211 -135.7306 -60.1463
TCL: Running FEP window  20: Lambda1 0.9500000000000003 Lambda2 1.0    [dLambda 0.04999999999999971]
TCL: Setting parameter firsttimestep to 0
TCL: Setting parameter alchLambda to 0.9500000000000003
Info: NONBONDED TABLE R-SQUARED SPACING: 0.0625
Info: NONBONDED TABLE SIZE: 705 POINTS
TCL: Setting parameter alchLambda2 to 1.0
Info: NONBONDED TABLE R-SQUARED SPACING: 0.0625
Info: NONBONDED TABLE SIZE: 705 POINTS
TCL: Running for 1500000 steps
ETITLE: TS BOND ANGLE DIHED IMPRP ELECT VDW BOUNDARY MISC KINETIC TOTAL TEMP POTENTIAL TOTALAVG TEMPAVG PRESSURE GPRESSURE VOLUME PRESSAVG GPRESSAVG
ENERGY: 0 3.3546 11.2705 2.4741 0.0000 -10594.8891 1391.6173 0.0000 0.0000 1800.8910 -7385.2817 306.9431 -9186.1727 -7385.2817 306.9431 55.2270 127.6323 30234.8211 55.2270 127.6323
ENERGY: 300000 1.1407 9.1384 3.8606 0.0000 -10664.8599 1371.3870 0.0000 0.0000 1769.8761 -7509.4571 301.6570 -9279.3332 -7452.6615 304.4937 -639.2772 -530.8123 30294.6771 -332.0146 -226.4125
ENERGY: 600000 1.4653 11.5427 5.2304 0.0000 -10539.1674 1361.8988 0.0000 0.0000 1761.4293 -7397.6010 300.2173 -9159.0303 -7432.8541 304.8085 -546.7006 -516.3157 30872.8328 -316.6554 -230.8040
ENERGY: 900000 0.7357 8.3625 7.1730 0.0000 -10718.5178 1427.9459 0.0000 0.0000 1757.3110 -7516.9897 299.5154 -9274.3007 -7433.5642 303.4757 -146.2911 -42.2100 30316.7941 -131.2496 -47.3178
ENERGY: 1200000 3.6783 12.4580 2.9640 0.0000 -10585.8127 1355.4565 0.0000 0.0000 1726.1337 -7485.1222 294.2015 -9211.2559 -7444.6961 302.5358 -594.9911 -547.7817 30424.2268 -171.4084 -91.3605
ENERGY: 1500000 5.1384 7.3794 5.1357 0.0000 -10714.1215 1419.8902 0.0000 0.0000 1743.4422 -7533.1356 297.1516 -9276.5778 -7453.9243 300.7907 -326.7638 -207.8963 30277.0283 -139.6000 -56.2075
TCL: Exiting due to exit command.
