Info: SIMULATION PARAMETERS:
Info: TIMESTEP               2
Info: NUMBER OF STEPS        0
Info: STEPS PER CYCLE        10
Info: PERIODIC CELL BASIS 1  32.2599 0 0
Info: PERIODIC CELL BASIS 2  0 30.2039 0
Info: PERIODIC CELL BASIS 3  0 0 31.6471
Info: PERIODIC CELL CENTER   0 0 0
Info: WRAPPING WATERS AROUND PERIODIC BOUNDARIES ON OUTPUT.
Info: WRAPPING ALL CLUSTERS AROUND PERIODIC BOUNDARIES ON OUTPUT.
Info: FIRST LDB TIMESTEP     50
Info: LAST LDB TIMESTEP     -1
Info: HOM BACKGROUND SCALING 1
Info: PME BACKGROUND SCALING 1
Info: MIN ATOMS PER PATCH    40
Info: EMPTY PATCH LOAD       40 ATOMS
Info: VELOCITY FILE          mobley_7829570_equil.vel
Info: CENTER OF MASS MOVING INITIALLY? NO
Info: DIELECTRIC             1
Info: EXCLUDE                SCALED ONE-FOUR
Info: 1-4 ELECTROSTATICS SCALED BY 0.833333
Info: MODIFIED 1-4 VDW PARAMETERS WILL BE USED
Info: DCD FILENAME           mobley_7829570_prod.dcd
Info: DCD FREQUENCY          100000
Info: DCD FIRST STEP         100000
Info: DCD FILE WILL CONTAIN UNIT CELL DATA
Info: XST FILENAME           mobley_7829570_prod.xst
Info: XST FREQUENCY          100000
Info: NO VELOCITY DCD OUTPUT
Info: NO FORCE DCD OUTPUT
Info: OUTPUT FILENAME        mobley_7829570_prod
Info: BINARY OUTPUT FILES WILL BE USED
Info: RESTART FILENAME       mobley_7829570_prod.restart
Info: RESTART FREQUENCY      100000
Info: BINARY RESTART FILES WILL BE USED
Info: CUTOFF                 9
Info: PAIRLIST DISTANCE      11
Info: PAIRLIST SHRINK RATE   0.01
Info: PAIRLIST GROW RATE     0.01
Info: PAIRLIST TRIGGER       0.3
Info: PAIRLISTS PER CYCLE    2
Info: PAIRLISTS ENABLED
Info: MARGIN                 2
Info: HYDROGEN GROUP CUTOFF  2.5
Info: PATCH DIMENSION        15.5
Info: ENERGY OUTPUT STEPS    100000
Info: ENERGY EVALUATION STEPS    100000
Info: OUTPUT ENERGY PRECISION 4
Info: CROSSTERM ENERGY INCLUDED IN DIHEDRAL
Info: TIMING OUTPUT STEPS    1000000
Info: PRESSURE OUTPUT STEPS  100000
Info: ALCHEMICAL FEP ON
Info: FEP CURRENT LAMBDA VALUE     0
Info: FEP COMPARISON LAMBDA VALUE  0.05
Info: FEP INTRA-ALCHEMICAL NON-BONDED INTERACTIONS WILL BE RETAINED
Info: FEP INTRA-ALCHEMICAL BONDED INTERACTIONS WILL BE RETAINED
Info: FEP VDW SHIFTING COEFFICIENT 5
Info: FEP ELEC. ACTIVE FOR ANNIHILATED PARTICLES BETWEEN LAMBDA = 0 AND LAMBDA = 0.5
Info: FEP ELEC. ACTIVE FOR EXNIHILATED PARTICLES BETWEEN LAMBDA = 0.5 AND LAMBDA = 1
Info: FEP VDW ACTIVE FOR ANNIHILATED PARTICLES BETWEEN LAMBDA = 0 AND LAMBDA = 1
Info: FEP VDW ACTIVE FOR EXNIHILATED PARTICLES BETWEEN LAMBDA = 0 AND LAMBDA = 1
Info: FEP BOND ACTIVE FOR ANNIHILATED PARTICLES BETWEEN LAMBDA = 1 AND LAMBDA = 1
Info: FEP BOND ACTIVE FOR EXNIHILATED PARTICLES BETWEEN LAMBDA = 0 AND LAMBDA = 0
Info: LANGEVIN DYNAMICS ACTIVE
Info: LANGEVIN TEMPERATURE   300
Info: LANGEVIN USING BBK INTEGRATOR
Info: LANGEVIN DAMPING COEFFICIENT IS 1 INVERSE PS
Info: LANGEVIN DYNAMICS APPLIED TO HYDROGENS
Info: LANGEVIN PISTON PRESSURE CONTROL ACTIVE
Info:        TARGET PRESSURE IS 1.01325 BAR
Info:     OSCILLATION PERIOD IS 50 FS
Info:             DECAY TIME IS 25 FS
Info:     PISTON TEMPERATURE IS 300 K
Info:       PRESSURE CONTROL IS GROUP-BASED
Info:    INITIAL STRAIN RATE IS 0.000150213 0.000150213 0.000150213
Info:       CELL FLUCTUATION IS ISOTROPIC
Info: PARTICLE MESH EWALD (PME) ACTIVE
Info: PME TOLERANCE               1e-06
Info: PME EWALD COEFFICIENT       0.348832
Info: PME INTERPOLATION ORDER     4
Info: PME GRID DIMENSIONS         36 32 32
Info: PME MAXIMUM GRID SPACING    1
Info: PME CALCULATION WILL BE PERFORMED ON GPU
Info: FULL ELECTROSTATIC EVALUATION FREQUENCY      2
Info: USING VERLET I (r-RESPA) MTS SCHEME.
Info: C1 SPLITTING OF LONG RANGE ELECTROSTATICS
Info: PLACING ATOMS IN PATCHES BY HYDROGEN GROUPS
Info: RIGID BONDS TO HYDROGEN : ALL
Info:         ERROR TOLERANCE : 1e-08
Info:          MAX ITERATIONS : 100
Info: RIGID WATER USING SETTLE ALGORITHM
Info: RANDOM NUMBER SEED     1744089244
Info: USE HYDROGEN BONDS?    NO
Info: Using AMBER format force field!
Info: AMBER PARM FILE        mobley_7829570.prmtop
Info: COORDINATE PDB         mobley_7829570.pdb
Info: Exclusions will be read from PARM file!
Info: SCNB (VDW SCALING)     2
Info: USING ARITHMETIC MEAN TO COMBINE L-J SIGMA PARAMETERS
Info: BINARY COORDINATES     mobley_7829570_equil.coor
Info: SUMMARY OF PARAMETERS:
Info: 13 BONDS
Info: 18 ANGLES
Info:   18 HARMONIC
Info:   0 COSINE-BASED
Info: 11 DIHEDRAL
Info: 0 IMPROPER
Info: 0 CROSSTERM
Info: 0 VDW
Info: 55 VDW_PAIRS
Info: 0 NBTHOLE_PAIRS
Info: To read alchdata from file: mobley_7829570.pdb
Info: To read alchflag data from column: 5
Info: STRUCTURE SUMMARY:
Info: 2979 ATOMS
Info: 2979 BONDS
Info: 69 ANGLES
Info: 99 DIHEDRALS
Info: 0 IMPROPERS
Info: 0 CROSSTERMS
Info: 3135 EXCLUSIONS
Info: 2956 RIGID BONDS
Info: ALCH: 0 ATOMS TO DISAPPEAR IN FINAL STATE
Info: ALCH: 39 ATOMS TO APPEAR IN FINAL STATE
Info: 5981 DEGREES OF FREEDOM
Info: 1003 HYDROGEN GROUPS
Info: 4 ATOMS IN LARGEST HYDROGEN GROUP
Info: 1003 MIGRATION GROUPS
Info: 4 ATOMS IN LARGEST MIGRATION GROUP
Info: TOTAL MASS = 17991 amu
Info: TOTAL CHARGE = 1.30385e-08 e
Info: MASS DENSITY = 0.968843 g/cm^3
Info: ATOM DENSITY = 0.0966074 atoms/A^3
Info: ADDED 0 IMPLICIT EXCLUSIONS
Info: NONBONDED TABLE R-SQUARED SPACING: 0.0625
Info: NONBONDED TABLE SIZE: 705 POINTS
Info: REMOVING COM VELOCITY 0.0705919 0.0945814 0.00788062
Info: Use 3D box decompostion in PME FFT.
Info: Updated CUDA force table with 4096 elements.
Info: Updated CUDA LJ table with 10 x 10 elements.
Info: Found 40 unique exclusion lists needing 212 bytes
TCL: Running for 1500000 steps
ETITLE: TS BOND ANGLE DIHED IMPRP ELECT VDW BOUNDARY MISC KINETIC TOTAL TEMP POTENTIAL TOTALAVG TEMPAVG PRESSURE GPRESSURE VOLUME PRESSAVG GPRESSAVG
ENERGY: 0 8.8166 9.7905 19.5650 0.0000 -10604.5167 1409.2546 0.0000 0.0000 1835.1333 -7321.9567 308.8049 -9157.0900 -7321.9567 308.8049 -109.6519 -40.3915 30836.1576 -109.6519 -40.3915
ENERGY: 300000 12.2445 17.7326 19.3454 0.0000 -10876.3035 1485.7788 0.0000 0.0000 1779.3121 -7561.8900 299.4117 -9341.2021 -7446.6329 302.6243 -20.1612 71.1229 30111.3574 -96.1212 -15.0709
ENERGY: 600000 11.3847 20.1943 19.0986 0.0000 -10716.2082 1442.4942 0.0000 0.0000 1787.4581 -7435.5782 300.7824 -9223.0363 -7459.9393 301.4918 154.6398 189.4435 30692.3715 48.6259 113.4220
ENERGY: 900000 12.1336 14.4715 18.7312 0.0000 -10692.7677 1398.1397 0.0000 0.0000 1800.7766 -7448.5151 303.0236 -9249.2916 -7451.8059 301.8817 -195.3092 -66.7894 30036.6432 37.7489 110.0790
ENERGY: 1200000 9.9719 13.8155 20.4670 0.0000 -10832.8908 1528.9404 0.0000 0.0000 1810.2534 -7449.4427 304.6183 -9259.6961 -7449.6341 302.2833 583.1516 614.7154 30306.2721 -1.0044 62.4060
ENERGY: 1500000 6.3604 16.2187 19.7887 0.0000 -10891.0949 1564.9159 0.0000 0.0000 1820.0647 -7463.7465 306.2693 -9283.8112 -7452.7831 302.1965 623.7414 740.8058 30354.2719 -39.4677 26.7298
TCL: Running FEP window   2: Lambda1 0.05   Lambda2 0.1    [dLambda 0.05  ]
TCL: Setting parameter firsttimestep to 0
TCL: Setting parameter alchLambda to 0.05
Info: NONBONDED TABLE R-SQUARED SPACING: 0.0625
Info: NONBONDED TABLE SIZE: 705 POINTS
TCL: Setting parameter alchLambda2 to 0.1
Info: NONBONDED TABLE R-SQUARED SPACING: 0.0625
Info: NONBONDED TABLE SIZE: 705 POINTS
TCL: Running for 1500000 steps
ETITLE: TS BOND ANGLE DIHED IMPRP ELECT VDW BOUNDARY MISC KINETIC TOTAL TEMP POTENTIAL TOTALAVG TEMPAVG PRESSURE GPRESSURE VOLUME PRESSAVG GPRESSAVG
ENERGY: 0 6.3604 16.2187 19.7887 0.0000 -10891.0944 1571.5330 0.0000 0.0000 1819.1787 -7458.0149 306.1202 -9277.1937 -7458.0149 306.1202 676.6101 761.9472 30354.2719 676.6101 761.9472
ENERGY: 300000 6.1513 16.7431 21.7772 0.0000 -10867.9826 1485.2187 0.0000 0.0000 1776.5180 -7561.5744 298.9415 -9338.0924 -7478.8057 299.8479 336.0957 377.7197 29921.0464 220.5934 301.6603
ENERGY: 600000 8.3117 13.2604 21.9810 0.0000 -10656.5531 1417.8041 0.0000 0.0000 1818.5313 -7376.6646 306.0112 -9195.1958 -7460.4580 300.0711 -282.7222 -247.2431 30858.5726 254.9072 322.6938
ENERGY: 900000 11.8397 15.2952 20.3299 0.0000 -10593.9276 1341.9232 0.0000 0.0000 1789.6403 -7414.8993 301.1496 -9204.5396 -7455.7858 300.0777 -714.5698 -648.5758 30128.2893 25.8559 89.7041
ENERGY: 1200000 13.4462 13.1974 19.7392 0.0000 -10695.4395 1428.5415 0.0000 0.0000 1771.7081 -7448.8072 298.1321 -9220.5153 -7464.3917 300.4528 -56.3758 -71.8361 30286.4010 19.4899 76.1841
ENERGY: 1500000 7.6407 12.4059 20.8049 0.0000 -10806.4254 1538.7611 0.0000 0.0000 1723.2298 -7503.5831 289.9745 -9226.8129 -7469.9081 300.1819 743.9805 752.9213 30258.8694 28.3923 83.8450
TCL: Running FEP window   3: Lambda1 0.1    Lambda2 0.15000000000000002 [dLambda 0.05000000000000002]
TCL: Setting parameter firsttimestep to 0
TCL: Setting parameter alchLambda to 0.1
Info: NONBONDED TABLE R-SQUARED SPACING: 0.0625
Info: NONBONDED TABLE SIZE: 705 POINTS
TCL: Setting parameter alchLambda2 to 0.15000000000000002
Info: NONBONDED TABLE R-SQUARED SPACING: 0.0625
Info: NONBONDED TABLE SIZE: 705 POINTS
TCL: Running for 1500000 steps
ETITLE: TS BOND ANGLE DIHED IMPRP ELECT VDW BOUNDARY MISC KINETIC TOTAL TEMP POTENTIAL TOTALAVG TEMPAVG PRESSURE GPRESSURE VOLUME PRESSAVG GPRESSAVG
ENERGY: 0 7.6407 12.4059 20.8049 0.0000 -10806.4243 1540.7382 0.0000 0.0000 1722.3370 -7502.4977 289.8242 -9224.8347 -7502.4977 289.8242 683.9214 766.2313 30258.8694 683.9214 766.2313
ENERGY: 300000 8.5088 19.3037 17.7143 0.0000 -10660.8575 1427.6956 0.0000 0.0000 1827.8308 -7359.8042 307.5761 -9187.6350 -7449.3442 297.4876 -344.3086 -245.1532 30859.8845 235.5623 308.0053
ENERGY: 600000 7.1461 12.8890 19.4399 0.0000 -10724.7217 1522.0445 0.0000 0.0000 1793.6552 -7369.5469 301.8252 -9163.2021 -7429.1433 299.7449 433.2818 446.2971 30937.0025 186.4200 246.0492
ENERGY: 900000 4.9199 19.3220 21.6765 0.0000 -10713.9000 1426.0368 0.0000 0.0000 1714.3605 -7527.5842 288.4820 -9241.9448 -7447.3921 297.5241 -295.8276 -273.4774 30177.8965 209.2563 266.2526
ENERGY: 1200000 4.9571 15.0711 18.8113 0.0000 -10707.8401 1423.0904 0.0000 0.0000 1841.1128 -7404.7974 309.8111 -9245.9102 -7434.9860 299.5202 -387.6965 -363.9745 31003.1342 140.0503 196.7147
ENERGY: 1500000 4.3923 11.9007 18.1010 0.0000 -10757.1368 1456.4290 0.0000 0.0000 1751.9921 -7514.3216 294.8144 -9266.3137 -7442.1074 299.1763 -36.0001 60.3532 30366.9347 140.9936 203.7889
TCL: Running FEP window   4: Lambda1 0.15000000000000002 Lambda2 0.2    [dLambda 0.04999999999999999]
TCL: Setting parameter firsttimestep to 0
TCL: Setting parameter alchLambda to 0.15000000000000002
Info: NONBONDED TABLE R-SQUARED SPACING: 0.0625
Info: NONBONDED TABLE SIZE: 705 POINTS
TCL: Setting parameter alchLambda2 to 0.2
Info: NONBONDED TABLE R-SQUARED SPACING: 0.0625
Info: NONBONDED TABLE SIZE: 705 POINTS
TCL: Running for 1500000 steps
ETITLE: TS BOND ANGLE DIHED IMPRP ELECT VDW BOUNDARY MISC KINETIC TOTAL TEMP POTENTIAL TOTALAVG TEMPAVG PRESSURE GPRESSURE VOLUME PRESSAVG GPRESSAVG
ENERGY: 0 4.3923 11.9007 18.1010 0.0000 -10757.1371 1457.3409 0.0000 0.0000 1751.1439 -7514.2583 294.6717 -9265.4022 -7514.2583 294.6717 -4.0806 74.7307 30366.9347 -4.0806 74.7307
ENERGY: 300000 8.6614 12.5796 18.8011 0.0000 -10656.0601 1408.9215 0.0000 0.0000 1747.8197 -7459.2768 294.1123 -9207.0966 -7469.2401 297.0106 -250.8712 -172.1612 30365.6950 -294.9657 -241.7803
ENERGY: 600000 6.4527 15.8278 18.5546 0.0000 -10742.6656 1428.0851 0.0000 0.0000 1807.1455 -7466.5999 304.0953 -9273.7454 -7464.7211 299.1117 19.1675 91.5123 30473.5175 -209.6229 -160.1655
ENERGY: 900000 7.1241 14.9127 17.3119 0.0000 -10724.6131 1439.4542 0.0000 0.0000 1796.8475 -7448.9627 302.3624 -9245.8102 -7469.6552 299.5760 -372.5683 -267.9975 30869.2178 -247.1426 -186.6754
ENERGY: 1200000 9.9444 16.2670 14.7941 0.0000 -10766.6615 1550.6699 0.0000 0.0000 1806.8335 -7368.1525 304.0428 -9174.9861 -7447.8454 300.7816 1074.2349 1097.8281 30532.0741 -65.3724 -6.7561
ENERGY: 1500000 11.6752 13.5533 18.5244 0.0000 -10793.9513 1454.4975 0.0000 0.0000 1827.0784 -7468.6225 307.4495 -9295.7009 -7443.5971 301.5561 -151.0943 -112.0367 30304.4879 -135.2349 -75.4513
TCL: Running FEP window   5: Lambda1 0.2    Lambda2 0.25   [dLambda 0.04999999999999999]
TCL: Setting parameter firsttimestep to 0
TCL: Setting parameter alchLambda to 0.2
Info: NONBONDED TABLE R-SQUARED SPACING: 0.0625
Info: NONBONDED TABLE SIZE: 705 POINTS
TCL: Setting parameter alchLambda2 to 0.25
Info: NONBONDED TABLE R-SQUARED SPACING: 0.0625
Info: NONBONDED TABLE SIZE: 705 POINTS
TCL: Running for 1500000 steps
ETITLE: TS BOND ANGLE DIHED IMPRP ELECT VDW BOUNDARY MISC KINETIC TOTAL TEMP POTENTIAL TOTALAVG TEMPAVG PRESSURE GPRESSURE VOLUME PRESSAVG GPRESSAVG
ENERGY: 0 11.6752 13.5533 18.5244 0.0000 -10793.9513 1456.5687 0.0000 0.0000 1826.1618 -7467.4679 307.2952 -9293.6297 -7467.4679 307.2952 -186.0406 -95.7693 30304.4879 -186.0406 -95.7693
ENERGY: 300000 7.7819 17.3879 20.2729 0.0000 -10744.3018 1440.6016 0.0000 0.0000 1807.6567 -7450.6008 304.1813 -9258.2575 -7438.3012 302.8420 -178.7600 -165.0824 30615.3002 -79.9785 -25.4116
ENERGY: 600000 5.8969 14.2488 19.4501 0.0000 -10762.4091 1441.0286 0.0000 0.0000 1769.5843 -7512.2004 297.7747 -9281.7847 -7451.8774 301.9776 -105.0963 -24.1924 30662.2851 -181.7264 -113.9129
ENERGY: 900000 9.7679 12.1778 21.4047 0.0000 -10727.9409 1378.9078 0.0000 0.0000 1792.8613 -7512.8214 301.6916 -9305.6827 -7463.6841 301.3436 -466.6043 -363.6344 30072.2943 -76.2098 -2.6344
ENERGY: 1200000 6.8172 13.8600 20.0709 0.0000 -10612.7153 1309.8997 0.0000 0.0000 1786.6759 -7475.3917 300.6508 -9262.0676 -7460.9537 302.1223 -762.2587 -711.6423 30542.9066 -171.7194 -98.0514
ENERGY: 1500000 9.8055 17.2364 21.6082 0.0000 -10718.2883 1482.4772 0.0000 0.0000 1824.0126 -7363.1484 306.9336 -9187.1610 -7456.6161 302.7010 321.7144 382.0367 30681.7348 -123.7090 -52.9473
TCL: Running FEP window   6: Lambda1 0.25   Lambda2 0.3    [dLambda 0.04999999999999999]
TCL: Setting parameter firsttimestep to 0
TCL: Setting parameter alchLambda to 0.25
Info: NONBONDED TABLE R-SQUARED SPACING: 0.0625
Info: NONBONDED TABLE SIZE: 705 POINTS
TCL: Setting parameter alchLambda2 to 0.3
Info: NONBONDED TABLE R-SQUARED SPACING: 0.0625
Info: NONBONDED TABLE SIZE: 705 POINTS
TCL: Running for 1500000 steps
ETITLE: TS BOND ANGLE DIHED IMPRP ELECT VDW BOUNDARY MISC KINETIC TOTAL TEMP POTENTIAL TOTALAVG TEMPAVG PRESSURE GPRESSURE VOLUME PRESSAVG GPRESSAVG
ENERGY: 0 9.8055 17.2364 21.6082 0.0000 -10718.2866 1483.4101 0.0000 0.0000 1823.1459 -7363.0805 306.7877 -9186.2264 -7363.0805 306.7877 307.0784 394.9745 30681.7348 307.0784 394.9745
ENERGY: 300000 4.7192 13.6134 22.8970 0.0000 -10941.2273 1541.4943 0.0000 0.0000 1755.1763 -7603.3270 295.3502 -9358.5034 -7448.4413 305.0240 578.4588 675.2990 30258.1577 68.0885 154.6820
ENERGY: 600000 12.3647 12.2781 18.5635 0.0000 -10822.4515 1456.6531 0.0000 0.0000 1822.1394 -7500.4527 306.6184 -9322.5921 -7463.4773 302.8122 -252.7928 -239.9860 30548.7057 191.4876 267.7160
ENERGY: 900000 8.4713 16.2357 17.3716 0.0000 -10699.2182 1432.2507 0.0000 0.0000 1804.2445 -7420.6444 303.6071 -9224.8889 -7461.1943 301.2703 -127.5848 -75.6284 30487.5585 114.2856 184.7957
ENERGY: 1200000 5.6128 19.5203 23.7422 0.0000 -10617.8257 1354.4605 0.0000 0.0000 1752.2814 -7462.2086 294.8631 -9214.4900 -7456.7073 301.2996 -590.7376 -546.0058 30871.3274 48.1500 114.2911
ENERGY: 1500000 8.2828 19.4084 21.1590 0.0000 -10766.1566 1406.3220 0.0000 0.0000 1769.3327 -7541.6516 297.7324 -9310.9843 -7463.3978 301.1142 -548.8599 -513.5069 30722.1632 -79.7127 -10.3983
TCL: Running FEP window   7: Lambda1 0.3    Lambda2 0.35   [dLambda 0.04999999999999999]
TCL: Setting parameter firsttimestep to 0
TCL: Setting parameter alchLambda to 0.3
Info: NONBONDED TABLE R-SQUARED SPACING: 0.0625
Info: NONBONDED TABLE SIZE: 705 POINTS
TCL: Setting parameter alchLambda2 to 0.35
Info: NONBONDED TABLE R-SQUARED SPACING: 0.0625
Info: NONBONDED TABLE SIZE: 705 POINTS
TCL: Running for 1500000 steps
ETITLE: TS BOND ANGLE DIHED IMPRP ELECT VDW BOUNDARY MISC KINETIC TOTAL TEMP POTENTIAL TOTALAVG TEMPAVG PRESSURE GPRESSURE VOLUME PRESSAVG GPRESSAVG
ENERGY: 0 8.2828 19.4085 21.1590 0.0000 -10766.1563 1408.7917 0.0000 0.0000 1768.4331 -7540.0812 297.5810 -9308.5143 -7540.0812 297.5810 -569.7903 -492.6678 30722.1632 -569.7903 -492.6678
ENERGY: 300000 6.4555 12.3804 18.2725 0.0000 -10732.2493 1393.8530 0.0000 0.0000 1771.6026 -7529.6854 298.1144 -9301.2879 -7493.1245 298.4972 -849.6856 -706.5817 30581.1029 -955.1066 -880.0145
ENERGY: 600000 8.8485 21.4116 18.3883 0.0000 -10693.4537 1377.9398 0.0000 0.0000 1744.5811 -7522.2844 293.5673 -9266.8655 -7486.7826 299.0892 -713.2135 -661.7763 30723.1615 -663.2425 -593.7650
ENERGY: 900000 12.6807 17.8855 22.0343 0.0000 -10658.4075 1353.1752 0.0000 0.0000 1829.8121 -7422.8198 307.9095 -9252.6319 -7486.2595 299.1011 -780.5183 -724.5720 30583.3805 -599.0830 -535.5890
ENERGY: 1200000 4.0278 16.3165 18.0275 0.0000 -10796.8026 1452.3560 0.0000 0.0000 1756.5817 -7549.4930 295.5867 -9306.0747 -7490.6032 298.8746 149.1459 281.0731 30085.9328 -285.0145 -215.0798
ENERGY: 1500000 5.2033 20.5728 21.8365 0.0000 -10580.2685 1374.1697 0.0000 0.0000 1822.7863 -7335.6999 306.7272 -9158.4862 -7471.1590 298.9428 -305.1836 -305.4128 30675.5401 -255.6820 -190.0619
TCL: Running FEP window   8: Lambda1 0.35   Lambda2 0.39999999999999997 [dLambda 0.04999999999999999]
TCL: Setting parameter firsttimestep to 0
TCL: Setting parameter alchLambda to 0.35
Info: NONBONDED TABLE R-SQUARED SPACING: 0.0625
Info: NONBONDED TABLE SIZE: 705 POINTS
TCL: Setting parameter alchLambda2 to 0.39999999999999997
Info: NONBONDED TABLE R-SQUARED SPACING: 0.0625
Info: NONBONDED TABLE SIZE: 705 POINTS
TCL: Running for 1500000 steps
ETITLE: TS BOND ANGLE DIHED IMPRP ELECT VDW BOUNDARY MISC KINETIC TOTAL TEMP POTENTIAL TOTALAVG TEMPAVG PRESSURE GPRESSURE VOLUME PRESSAVG GPRESSAVG
ENERGY: 0 5.2033 20.5728 21.8365 0.0000 -10580.2686 1375.4015 0.0000 0.0000 1821.8601 -7335.3945 306.5714 -9157.2546 -7335.3945 306.5714 -383.2854 -288.0683 30675.5401 -383.2854 -288.0683
ENERGY: 300000 5.3013 24.4744 19.9222 0.0000 -10593.6224 1383.3229 0.0000 0.0000 1755.9897 -7404.6119 295.4871 -9160.6015 -7440.2211 298.7032 -328.2283 -296.2991 30545.2036 -372.1830 -299.6721
ENERGY: 600000 9.4875 17.9831 20.3152 0.0000 -10740.8987 1461.3108 0.0000 0.0000 1812.6209 -7419.1812 305.0167 -9231.8021 -7444.1126 299.5501 377.0654 390.8731 30224.3899 -110.2319 -54.2794
ENERGY: 900000 5.3470 19.2115 20.9195 0.0000 -10728.9234 1394.0977 0.0000 0.0000 1785.8773 -7503.4704 300.5164 -9289.3477 -7445.3290 300.0016 -214.1798 -140.2734 30679.2043 -151.3625 -97.1185
ENERGY: 1200000 7.7259 15.4125 20.7156 0.0000 -10784.6724 1462.0665 0.0000 0.0000 1816.2693 -7462.4825 305.6306 -9278.7518 -7445.8326 300.5782 183.1253 288.8500 30285.0874 -74.2638 -7.6088
ENERGY: 1500000 7.8629 13.0591 25.6083 0.0000 -10719.0084 1433.7271 0.0000 0.0000 1734.1142 -7504.6369 291.8060 -9238.7511 -7459.4637 300.1270 198.8047 277.9559 30070.9302 -36.3891 31.1458
TCL: Running FEP window   9: Lambda1 0.39999999999999997 Lambda2 0.44999999999999996 [dLambda 0.04999999999999999]
TCL: Setting parameter firsttimestep to 0
TCL: Setting parameter alchLambda to 0.39999999999999997
Info: NONBONDED TABLE R-SQUARED SPACING: 0.0625
Info: NONBONDED TABLE SIZE: 705 POINTS
TCL: Setting parameter alchLambda2 to 0.44999999999999996
Info: NONBONDED TABLE R-SQUARED SPACING: 0.0625
Info: NONBONDED TABLE SIZE: 705 POINTS
TCL: Running for 1500000 steps
ETITLE: TS BOND ANGLE DIHED IMPRP ELECT VDW BOUNDARY MISC KINETIC TOTAL TEMP POTENTIAL TOTALAVG TEMPAVG PRESSURE GPRESSURE VOLUME PRESSAVG GPRESSAVG
ENERGY: 0 7.8629 13.0591 25.6083 0.0000 -10719.0094 1434.6486 0.0000 0.0000 1733.2803 -7504.5503 291.6657 -9237.8306 -7504.5503 291.6657 225.6623 294.5021 30070.9302 225.6623 294.5021
ENERGY: 300000 7.6194 18.6942 20.4259 0.0000 -10733.9999 1452.8663 0.0000 0.0000 1792.7156 -7441.6785 301.6671 -9234.3941 -7438.3645 301.1013 63.0618 49.1058 30921.7010 323.5834 367.1664
ENERGY: 600000 6.0882 15.1569 21.6512 0.0000 -10699.1389 1420.1289 0.0000 0.0000 1746.5500 -7489.5637 293.8987 -9236.1137 -7437.0406 300.2173 -169.8940 -85.9303 30662.1847 229.7881 281.7615
ENERGY: 900000 7.9471 11.0136 18.9540 0.0000 -10786.5111 1499.9832 0.0000 0.0000 1780.3384 -7468.2749 299.5844 -9248.6132 -7444.7555 299.8549 719.9182 828.5026 30336.1802 170.1391 216.0425
ENERGY: 1200000 8.9848 17.3263 18.3206 0.0000 -10812.0019 1570.0290 0.0000 0.0000 1763.2882 -7434.0530 296.7153 -9197.3411 -7450.9446 299.2323 896.7391 929.2493 30804.9580 107.7105 156.2342
ENERGY: 1500000 6.9853 11.8362 20.8585 0.0000 -10705.6409 1401.7626 0.0000 0.0000 1796.7019 -7467.4964 302.3379 -9264.1984 -7455.1689 299.5830 -349.5078 -303.9476 30921.6586 58.9005 108.9095
TCL: Running FEP window  10: Lambda1 0.44999999999999996 Lambda2 0.49999999999999994 [dLambda 0.04999999999999999]
TCL: Setting parameter firsttimestep to 0
TCL: Setting parameter alchLambda to 0.44999999999999996
Info: NONBONDED TABLE R-SQUARED SPACING: 0.0625
Info: NONBONDED TABLE SIZE: 705 POINTS
TCL: Setting parameter alchLambda2 to 0.49999999999999994
Info: NONBONDED TABLE R-SQUARED SPACING: 0.0625
Info: NONBONDED TABLE SIZE: 705 POINTS
TCL: Running for 1500000 steps
ETITLE: TS BOND ANGLE DIHED IMPRP ELECT VDW BOUNDARY MISC KINETIC TOTAL TEMP POTENTIAL TOTALAVG TEMPAVG PRESSURE GPRESSURE VOLUME PRESSAVG GPRESSAVG
ENERGY: 0 6.9853 11.8362 20.8585 0.0000 -10705.6415 1400.8978 0.0000 0.0000 1795.8074 -7469.2563 302.1874 -9265.0636 -7469.2563 302.1874 -379.6988 -298.2757 30921.6586 -379.6988 -298.2757
ENERGY: 300000 8.3661 18.7855 17.4337 0.0000 -10891.6366 1609.7577 0.0000 0.0000 1815.3691 -7421.9245 305.4791 -9237.2936 -7417.5510 305.5659 1570.6696 1612.9809 30335.7088 138.8524 194.5648
ENERGY: 600000 9.2240 18.7389 20.1800 0.0000 -10738.4534 1432.9179 0.0000 0.0000 1769.1790 -7488.2136 297.7065 -9257.3927 -7433.6429 303.5979 -145.7866 -76.9084 30383.1626 -87.1382 -23.3847
ENERGY: 900000 8.9130 15.2122 19.5116 0.0000 -10577.9546 1362.7196 0.0000 0.0000 1775.3326 -7396.2656 298.7420 -9171.5982 -7427.9592 303.4256 -454.1068 -333.2048 30919.1995 -94.5741 -30.9520
ENERGY: 1200000 5.5360 16.5862 20.0492 0.0000 -10685.7833 1387.1797 0.0000 0.0000 1748.5399 -7507.8922 294.2335 -9256.4321 -7434.8047 302.8475 -342.7155 -374.1492 30591.7643 -86.3628 -31.1903
ENERGY: 1500000 8.1970 17.0260 20.2664 0.0000 -10708.3162 1416.9617 0.0000 0.0000 1832.3374 -7413.5277 308.3344 -9245.8651 -7436.7804 303.0577 -70.6460 41.5458 30379.4663 -182.6614 -122.6421
TCL: Running FEP window  11: Lambda1 0.49999999999999994 Lambda2 0.5499999999999999 [dLambda 0.04999999999999999]
TCL: Setting parameter firsttimestep to 0
TCL: Setting parameter alchLambda to 0.49999999999999994
Info: NONBONDED TABLE R-SQUARED SPACING: 0.0625
Info: NONBONDED TABLE SIZE: 705 POINTS
TCL: Setting parameter alchLambda2 to 0.5499999999999999
Info: NONBONDED TABLE R-SQUARED SPACING: 0.0625
Info: NONBONDED TABLE SIZE: 705 POINTS
TCL: Running for 1500000 steps
ETITLE: TS BOND ANGLE DIHED IMPRP ELECT VDW BOUNDARY MISC KINETIC TOTAL TEMP POTENTIAL TOTALAVG TEMPAVG PRESSURE GPRESSURE VOLUME PRESSAVG GPRESSAVG
ENERGY: 0 8.1970 17.0260 20.2664 0.0000 -10708.3146 1416.5224 0.0000 0.0000 1831.4832 -7414.8196 308.1907 -9246.3029 -7414.8196 308.1907 -33.5904 52.5315 30379.4663 -33.5904 52.5315
ENERGY: 300000 6.8709 22.2578 23.0943 0.0000 -10660.0532 1401.0254 0.0000 0.0000 1742.1933 -7464.6116 293.1655 -9206.8048 -7434.1528 304.6576 -210.6610 -96.3795 30406.6273 -172.7039 -86.8273
ENERGY: 600000 9.4735 19.2893 19.4412 0.0000 -10803.3249 1523.0009 0.0000 0.0000 1773.1673 -7458.9528 298.3777 -9232.1200 -7440.9969 303.1997 1107.5622 1141.2592 30208.8734 -80.6672 -16.9878
ENERGY: 900000 7.7357 12.9921 21.4763 0.0000 -10744.5252 1511.7051 0.0000 0.0000 1758.0220 -7432.5940 295.8291 -9190.6160 -7437.8603 301.4436 458.6084 563.1180 30819.0271 -125.1057 -61.8584
ENERGY: 1200000 9.1418 11.2733 19.3898 0.0000 -10601.1073 1410.7390 0.0000 0.0000 1804.6636 -7345.8998 303.6777 -9150.5634 -7429.4718 301.7044 -30.8683 -7.3638 30894.7779 -85.8714 -29.5073
ENERGY: 1500000 4.3805 14.8528 21.8717 0.0000 -10669.1719 1420.0054 0.0000 0.0000 1784.5660 -7423.4954 300.2958 -9208.0614 -7434.3710 301.2269 -243.5164 -142.5355 30942.1219 -32.1240 26.6053
TCL: Running FEP window  12: Lambda1 0.5499999999999999 Lambda2 0.6    [dLambda 0.050000000000000044]
TCL: Setting parameter firsttimestep to 0
TCL: Setting parameter alchLambda to 0.5499999999999999
Info: NONBONDED TABLE R-SQUARED SPACING: 0.0625
Info: NONBONDED TABLE SIZE: 705 POINTS
TCL: Setting parameter alchLambda2 to 0.6
Info: NONBONDED TABLE R-SQUARED SPACING: 0.0625
Info: NONBONDED TABLE SIZE: 705 POINTS
TCL: Running for 1500000 steps
ETITLE: TS BOND ANGLE DIHED IMPRP ELECT VDW BOUNDARY MISC KINETIC TOTAL TEMP POTENTIAL TOTALAVG TEMPAVG PRESSURE GPRESSURE VOLUME PRESSAVG GPRESSAVG
ENERGY: 0 4.3805 14.8528 21.8717 0.0000 -10669.1729 1419.3236 0.0000 0.0000 1783.6637 -7425.0806 300.1439 -9208.7443 -7425.0806 300.1439 -226.5518 -129.4432 30942.1219 -226.5518 -129.4432
ENERGY: 300000 5.0398 17.0621 20.0995 0.0000 -10567.0176 1372.4092 0.0000 0.0000 1746.8534 -7405.5535 293.9497 -9152.4069 -7455.3598 296.8055 -43.5986 50.5923 30825.0642 -212.5423 -128.7756
ENERGY: 600000 6.2550 12.5568 18.5631 0.0000 -10732.4465 1460.7340 0.0000 0.0000 1741.8424 -7492.4952 293.1065 -9234.3375 -7477.3628 297.5484 438.8617 530.0071 30404.4820 -234.9821 -159.2372
ENERGY: 900000 5.7765 16.6649 22.6344 0.0000 -10587.7939 1380.6419 0.0000 0.0000 1758.9817 -7403.0946 295.9906 -9162.0763 -7464.3549 299.8497 -560.2899 -474.1263 31301.4856 -202.4387 -133.8761
ENERGY: 1200000 6.3674 14.9876 19.3167 0.0000 -10793.2559 1463.4597 0.0000 0.0000 1787.8248 -7501.2997 300.8441 -9289.1245 -7475.5314 299.2717 260.6568 267.4405 30323.7996 -87.3801 -25.0014
ENERGY: 1500000 11.3152 13.4731 21.8405 0.0000 -10685.6044 1453.3162 0.0000 0.0000 1810.3769 -7375.2825 304.6391 -9185.6594 -7472.1756 300.0342 426.6874 507.0745 30406.3817 -95.4923 -38.1946
TCL: Running FEP window  13: Lambda1 0.6    Lambda2 0.65   [dLambda 0.050000000000000044]
TCL: Setting parameter firsttimestep to 0
TCL: Setting parameter alchLambda to 0.6
Info: NONBONDED TABLE R-SQUARED SPACING: 0.0625
Info: NONBONDED TABLE SIZE: 705 POINTS
TCL: Setting parameter alchLambda2 to 0.65
Info: NONBONDED TABLE R-SQUARED SPACING: 0.0625
Info: NONBONDED TABLE SIZE: 705 POINTS
TCL: Running for 1500000 steps
ETITLE: TS BOND ANGLE DIHED IMPRP ELECT VDW BOUNDARY MISC KINETIC TOTAL TEMP POTENTIAL TOTALAVG TEMPAVG PRESSURE GPRESSURE VOLUME PRESSAVG GPRESSAVG
ENERGY: 0 11.3152 13.4731 21.8405 0.0000 -10685.3846 1452.2728 0.0000 0.0000 1809.4753 -7377.0076 304.4873 -9186.4829 -7377.0076 304.4873 419.4323 508.2263 30406.3817 419.4323 508.2263
ENERGY: 300000 5.6025 20.6616 21.6485 0.0000 -10720.3050 1409.2618 0.0000 0.0000 1808.5016 -7454.6291 304.3235 -9263.1307 -7467.6560 301.3606 -232.0159 -209.6921 30761.5071 272.3080 323.8318
ENERGY: 600000 7.3204 15.5412 21.2768 0.0000 -10690.9997 1389.9827 0.0000 0.0000 1741.0751 -7515.8035 292.9774 -9256.8786 -7481.3511 299.6587 -74.4991 21.8525 30137.6332 155.6661 204.4126
ENERGY: 900000 4.1128 16.3408 20.7484 0.0000 -10786.8782 1475.3806 0.0000 0.0000 1808.3410 -7461.9546 304.2965 -9270.2957 -7476.3454 300.0481 509.0031 511.1662 30091.7445 263.9843 313.0601
ENERGY: 1200000 7.3678 16.1463 15.6198 0.0000 -10859.7417 1555.9658 0.0000 0.0000 1736.0003 -7528.6417 292.1234 -9264.6420 -7485.9845 299.0827 314.9975 403.3198 31107.4178 291.3151 340.7984
ENERGY: 1500000 7.3619 15.6756 16.6136 0.0000 -10734.5930 1446.6921 0.0000 0.0000 1771.1118 -7477.1381 298.0318 -9248.2499 -7479.5188 299.3019 83.4029 204.6755 30932.1828 286.2586 345.7468
TCL: Running FEP window  14: Lambda1 0.65   Lambda2 0.7000000000000001 [dLambda 0.050000000000000044]
TCL: Setting parameter firsttimestep to 0
TCL: Setting parameter alchLambda to 0.65
Info: NONBONDED TABLE R-SQUARED SPACING: 0.0625
Info: NONBONDED TABLE SIZE: 705 POINTS
TCL: Setting parameter alchLambda2 to 0.7000000000000001
Info: NONBONDED TABLE R-SQUARED SPACING: 0.0625
Info: NONBONDED TABLE SIZE: 705 POINTS
TCL: Running for 1500000 steps
ETITLE: TS BOND ANGLE DIHED IMPRP ELECT VDW BOUNDARY MISC KINETIC TOTAL TEMP POTENTIAL TOTALAVG TEMPAVG PRESSURE GPRESSURE VOLUME PRESSAVG GPRESSAVG
ENERGY: 0 7.3619 15.6756 16.6136 0.0000 -10734.7923 1445.8041 0.0000 0.0000 1770.1995 -7479.1377 297.8782 -9249.3372 -7479.1377 297.8782 142.2989 214.5344 30932.1828 142.2989 214.5344
ENERGY: 300000 5.5983 22.0389 21.4432 0.0000 -10685.8892 1421.9167 0.0000 0.0000 1811.9150 -7402.9772 304.8979 -9214.8922 -7473.0876 298.8357 -48.2670 54.7722 30684.5746 -20.4845 58.7061
ENERGY: 600000 7.0055 14.0679 20.3954 0.0000 -10799.6817 1441.5251 0.0000 0.0000 1759.5927 -7557.0952 296.0934 -9316.6879 -7461.5771 301.6760 73.9570 131.3543 30245.4235 15.0852 80.7683
ENERGY: 900000 5.4137 15.2804 17.1715 0.0000 -10569.3237 1334.0861 0.0000 0.0000 1798.3712 -7399.0007 302.6188 -9197.3720 -7453.4264 301.5427 -719.8619 -574.9986 31076.0976 -91.9215 -11.5042
ENERGY: 1200000 8.0621 12.0282 20.3155 0.0000 -10671.0353 1347.5517 0.0000 0.0000 1795.9026 -7487.1753 302.2034 -9283.0779 -7459.5245 300.7161 -500.7426 -450.4021 30008.4026 -130.8072 -57.7025
ENERGY: 1500000 6.8855 15.3528 19.6493 0.0000 -10708.7309 1405.5975 0.0000 0.0000 1712.0331 -7549.2128 288.0904 -9261.2459 -7472.1026 299.3850 -196.6028 -147.8349 30576.0208 -174.8706 -105.2997
TCL: Running FEP window  15: Lambda1 0.7000000000000001 Lambda2 0.7500000000000001 [dLambda 0.050000000000000044]
TCL: Setting parameter firsttimestep to 0
TCL: Setting parameter alchLambda to 0.7000000000000001
Info: NONBONDED TABLE R-SQUARED SPACING: 0.0625
Info: NONBONDED TABLE SIZE: 705 POINTS
TCL: Setting parameter alchLambda2 to 0.7500000000000001
Info: NONBONDED TABLE R-SQUARED SPACING: 0.0625
Info: NONBONDED TABLE SIZE: 705 POINTS
TCL: Running for 1500000 steps
ETITLE: TS BOND ANGLE DIHED IMPRP ELECT VDW BOUNDARY MISC KINETIC TOTAL TEMP POTENTIAL TOTALAVG TEMPAVG PRESSURE GPRESSURE VOLUME PRESSAVG GPRESSAVG
ENERGY: 0 6.8855 15.3528 19.6493 0.0000 -10709.2089 1405.0928 0.0000 0.0000 1711.1467 -7551.0818 287.9412 -9262.2285 -7551.0818 287.9412 -224.1116 -133.5384 30576.0208 -224.1116 -133.5384
ENERGY: 300000 10.5175 16.7613 20.3073 0.0000 -10843.0068 1499.7135 0.0000 0.0000 1775.9013 -7519.8059 298.8377 -9295.7072 -7504.6141 298.8945 383.6839 430.0989 30348.7788 -377.5060 -315.1014
ENERGY: 600000 5.6014 19.6671 23.7863 0.0000 -10751.4685 1449.6362 0.0000 0.0000 1848.4825 -7404.2950 311.0512 -9252.7774 -7491.9903 302.1391 137.9938 196.0482 30680.1694 -232.1657 -158.9282
ENERGY: 900000 5.8075 15.8230 21.2300 0.0000 -10875.4840 1511.9665 0.0000 0.0000 1799.1232 -7521.5339 302.7453 -9320.6571 -7497.3528 300.0991 573.9218 664.6124 30273.2659 -107.8350 -38.6814
ENERGY: 1200000 6.9407 11.8409 18.0562 0.0000 -10689.9407 1395.6165 0.0000 0.0000 1777.9174 -7479.5689 299.1770 -9257.4863 -7495.2282 299.8649 63.7364 85.8763 30519.9106 -80.0572 -19.4344
ENERGY: 1500000 8.7945 18.4141 20.1922 0.0000 -10685.2888 1427.0988 0.0000 0.0000 1771.6766 -7439.1127 298.1268 -9210.7892 -7478.3106 300.6828 -51.0719 -25.9348 31050.7583 -37.6892 27.0033
TCL: Running FEP window  16: Lambda1 0.7500000000000001 Lambda2 0.8000000000000002 [dLambda 0.050000000000000044]
TCL: Setting parameter firsttimestep to 0
TCL: Setting parameter alchLambda to 0.7500000000000001
Info: NONBONDED TABLE R-SQUARED SPACING: 0.0625
Info: NONBONDED TABLE SIZE: 705 POINTS
TCL: Setting parameter alchLambda2 to 0.8000000000000002
Info: NONBONDED TABLE R-SQUARED SPACING: 0.0625
Info: NONBONDED TABLE SIZE: 705 POINTS
TCL: Running for 1500000 steps
ETITLE: TS BOND ANGLE DIHED IMPRP ELECT VDW BOUNDARY MISC KINETIC TOTAL TEMP POTENTIAL TOTALAVG TEMPAVG PRESSURE GPRESSURE VOLUME PRESSAVG GPRESSAVG
ENERGY: 0 8.7945 18.4141 20.1922 0.0000 -10685.9463 1426.9512 0.0000 0.0000 1770.7931 -7440.8013 297.9781 -9211.5944 -7440.8013 297.9781 -75.9297 -7.9802 31050.7583 -75.9297 -7.9802
ENERGY: 300000 8.3735 11.9166 20.7249 0.0000 -10475.8505 1333.3234 0.0000 0.0000 1751.3916 -7350.1206 294.7134 -9101.5122 -7440.8473 295.4333 -580.8884 -512.6904 31065.5097 -328.5255 -289.1275
ENERGY: 600000 6.4925 21.1256 20.0561 0.0000 -10781.6990 1468.1682 0.0000 0.0000 1794.3363 -7471.5204 301.9398 -9265.8567 -7461.4882 297.2948 614.5463 592.8105 30543.9673 -153.3869 -111.8754
ENERGY: 900000 8.4584 14.7324 21.4555 0.0000 -10837.0499 1523.1650 0.0000 0.0000 1756.9966 -7512.2418 295.6566 -9269.2385 -7458.6796 297.5261 578.1928 643.4100 30549.0234 -91.0542 -42.8180
ENERGY: 1200000 6.4812 16.8319 21.9887 0.0000 -10740.0765 1434.6621 0.0000 0.0000 1781.9551 -7478.1576 299.8564 -9260.1127 -7469.2615 297.5147 -323.7277 -239.5020 31041.6880 -50.3428 3.9142
ENERGY: 1500000 5.9544 17.5889 18.1066 0.0000 -10691.3296 1434.2695 0.0000 0.0000 1828.4134 -7386.9970 307.6741 -9215.4104 -7467.5410 298.5105 190.9931 292.4566 30568.3168 26.8464 80.1661
TCL: Running FEP window  17: Lambda1 0.8000000000000002 Lambda2 0.8500000000000002 [dLambda 0.050000000000000044]
TCL: Setting parameter firsttimestep to 0
TCL: Setting parameter alchLambda to 0.8000000000000002
Info: NONBONDED TABLE R-SQUARED SPACING: 0.0625
Info: NONBONDED TABLE SIZE: 705 POINTS
TCL: Setting parameter alchLambda2 to 0.8500000000000002
Info: NONBONDED TABLE R-SQUARED SPACING: 0.0625
Info: NONBONDED TABLE SIZE: 705 POINTS
TCL: Running for 1500000 steps
ETITLE: TS BOND ANGLE DIHED IMPRP ELECT VDW BOUNDARY MISC KINETIC TOTAL TEMP POTENTIAL TOTALAVG TEMPAVG PRESSURE GPRESSURE VOLUME PRESSAVG GPRESSAVG
ENERGY: 0 5.9544 17.5889 18.1066 0.0000 -10691.9346 1434.6516 0.0000 0.0000 1827.5099 -7388.1232 307.5221 -9215.6332 -7388.1232 307.5221 234.4883 320.2701 30568.3168 234.4883 320.2701
ENERGY: 300000 12.2217 20.5307 20.0956 0.0000 -10840.4203 1520.0105 0.0000 0.0000 1842.8155 -7424.7462 310.0976 -9267.5617 -7455.2454 305.5337 659.1476 743.2357 30342.5155 261.5728 334.0493
ENERGY: 600000 11.9487 17.0686 20.6818 0.0000 -10630.8605 1381.8607 0.0000 0.0000 1757.9013 -7441.3993 295.8088 -9199.3006 -7465.4436 302.0184 -235.6564 -213.3813 30523.9246 63.7518 116.0484
ENERGY: 900000 7.6876 17.9107 20.8381 0.0000 -10448.0744 1301.8104 0.0000 0.0000 1746.3304 -7353.4972 293.8617 -9099.8276 -7462.5227 300.6545 -972.8964 -893.7180 31215.2918 30.1800 82.1339
ENERGY: 1200000 8.5472 13.9732 19.7598 0.0000 -10594.4854 1369.9001 0.0000 0.0000 1758.1828 -7424.1222 295.8562 -9182.3050 -7457.6398 299.0884 -298.9859 -238.8136 30846.6194 -36.3040 18.1015
ENERGY: 1500000 8.9746 17.5943 18.7783 0.0000 -10702.6171 1405.4048 0.0000 0.0000 1778.7530 -7473.1121 299.3176 -9251.8651 -7457.6650 299.8171 -368.7107 -272.8940 30768.9702 -104.8532 -53.7789
TCL: Running FEP window  18: Lambda1 0.8500000000000002 Lambda2 0.9000000000000002 [dLambda 0.050000000000000044]
TCL: Setting parameter firsttimestep to 0
TCL: Setting parameter alchLambda to 0.8500000000000002
Info: NONBONDED TABLE R-SQUARED SPACING: 0.0625
Info: NONBONDED TABLE SIZE: 705 POINTS
TCL: Setting parameter alchLambda2 to 0.9000000000000002
Info: NONBONDED TABLE R-SQUARED SPACING: 0.0625
Info: NONBONDED TABLE SIZE: 705 POINTS
TCL: Running for 1500000 steps
ETITLE: TS BOND ANGLE DIHED IMPRP ELECT VDW BOUNDARY MISC KINETIC TOTAL TEMP POTENTIAL TOTALAVG TEMPAVG PRESSURE GPRESSURE VOLUME PRESSAVG GPRESSAVG
ENERGY: 0 8.9746 17.5943 18.7783 0.0000 -10703.8281 1405.0302 0.0000 0.0000 1777.8441 -7475.6065 299.1646 -9253.4507 -7475.6065 299.1646 -326.4370 -257.2647 30768.9702 -326.4370 -257.2647
ENERGY: 300000 8.4144 17.4763 22.6058 0.0000 -10656.7028 1396.5246 0.0000 0.0000 1766.3231 -7445.3586 297.2260 -9211.6817 -7460.0141 298.6723 80.9624 165.3590 30492.1994 41.0426 102.2440
ENERGY: 600000 6.6373 11.9082 19.4648 0.0000 -10620.4900 1402.4030 0.0000 0.0000 1832.9045 -7347.1722 308.4299 -9180.0767 -7446.8966 298.2212 249.0919 322.2853 30518.3924 -32.0349 37.5875
ENERGY: 900000 6.2085 18.8192 19.3030 0.0000 -10717.3806 1361.3481 0.0000 0.0000 1803.5868 -7508.1150 303.4965 -9311.7018 -7450.2947 299.6712 -788.4616 -677.0204 30678.4913 -122.5481 -48.5704
ENERGY: 1200000 6.2171 13.8430 21.0932 0.0000 -10715.2791 1440.9196 0.0000 0.0000 1818.5404 -7414.6658 306.0128 -9233.2062 -7453.8531 299.7765 545.2590 553.3726 30407.7415 -61.2955 8.8851
ENERGY: 1500000 7.5288 15.8510 20.3092 0.0000 -10739.3925 1468.0472 0.0000 0.0000 1823.9132 -7403.7431 306.9169 -9227.6563 -7457.1019 299.6592 497.1561 554.0880 30551.2935 114.3448 181.8408
TCL: Running FEP window  19: Lambda1 0.9000000000000002 Lambda2 0.9500000000000003 [dLambda 0.050000000000000044]
TCL: Setting parameter firsttimestep to 0
TCL: Setting parameter alchLambda to 0.9000000000000002
Info: NONBONDED TABLE R-SQUARED SPACING: 0.0625
Info: NONBONDED TABLE SIZE: 705 POINTS
TCL: Setting parameter alchLambda2 to 0.9500000000000003
Info: NONBONDED TABLE R-SQUARED SPACING: 0.0625
Info: NONBONDED TABLE SIZE: 705 POINTS
TCL: Running for 1500000 steps
ETITLE: TS BOND ANGLE DIHED IMPRP ELECT VDW BOUNDARY MISC KINETIC TOTAL TEMP POTENTIAL TOTALAVG TEMPAVG PRESSURE GPRESSURE VOLUME PRESSAVG GPRESSAVG
ENERGY: 0 7.5288 15.8510 20.3092 0.0000 -10740.2047 1467.8641 0.0000 0.0000 1823.0119 -7405.6397 306.7652 -9228.6516 -7405.6397 306.7652 506.3745 577.5758 30551.2935 506.3745 577.5758
ENERGY: 300000 9.2238 15.6685 17.6262 0.0000 -10707.1648 1429.0335 0.0000 0.0000 1796.6546 -7438.9583 302.3299 -9235.6129 -7451.0030 301.1696 -70.6131 81.6251 30722.7829 -52.2325 48.4418
ENERGY: 600000 5.0452 18.5894 18.8494 0.0000 -10744.7359 1422.1762 0.0000 0.0000 1768.8823 -7511.1933 297.6566 -9280.0755 -7467.7792 300.0662 -387.2922 -296.7252 31085.1139 -195.9661 -101.9787
ENERGY: 900000 7.4599 16.7055 20.4956 0.0000 -10849.0067 1542.8464 0.0000 0.0000 1712.9361 -7548.5632 288.2423 -9261.4993 -7475.1377 298.2656 1021.3374 1089.0937 30532.8301 3.0549 87.7547
ENERGY: 1200000 8.0278 19.3030 18.3586 0.0000 -10656.5601 1332.5532 0.0000 0.0000 1799.6828 -7478.6347 302.8395 -9278.3174 -7468.0246 299.0343 -863.4938 -909.5073 31119.5826 41.1799 110.0706
ENERGY: 1500000 4.3142 14.8060 16.9028 0.0000 -10797.0575 1480.5329 0.0000 0.0000 1780.6650 -7499.8365 299.6393 -9280.5016 -7472.8358 299.2790 492.1745 578.9468 30679.6384 84.1409 160.9783
TCL: Running FEP window  20: Lambda1 0.9500000000000003 Lambda2 1.0    [dLambda 0.04999999999999971]
TCL: Setting parameter firsttimestep to 0
TCL: Setting parameter alchLambda to 0.9500000000000003
Info: NONBONDED TABLE R-SQUARED SPACING: 0.0625
Info: NONBONDED TABLE SIZE: 705 POINTS
TCL: Setting parameter alchLambda2 to 1.0
Info: NONBONDED TABLE R-SQUARED SPACING: 0.0625
Info: NONBONDED TABLE SIZE: 705 POINTS
TCL: Running for 1500000 steps
ETITLE: TS BOND ANGLE DIHED IMPRP ELECT VDW BOUNDARY MISC KINETIC TOTAL TEMP POTENTIAL TOTALAVG TEMPAVG PRESSURE GPRESSURE VOLUME PRESSAVG GPRESSAVG
ENERGY: 0 4.3142 14.8060 16.9028 0.0000 -10797.8547 1481.3559 0.0000 0.0000 1779.7438 -7500.7320 299.4843 -9280.4758 -7500.7320 299.4843 526.2998 615.5985 30679.6384 526.2998 615.5985
ENERGY: 300000 10.9278 16.9588 21.6664 0.0000 -10639.7885 1315.4458 0.0000 0.0000 1733.2222 -7541.5676 291.6559 -9274.7898 -7504.7066 297.7294 -1197.8217 -1121.5507 31023.2498 -325.9903 -254.1957
ENERGY: 600000 7.1902 13.6882 18.9372 0.0000 -10799.7882 1436.8356 0.0000 0.0000 1798.0666 -7525.0704 302.5676 -9323.1370 -7484.1764 299.5551 47.2637 174.0437 30365.3313 -453.8802 -373.0262
ENERGY: 900000 6.0047 18.0449 17.3458 0.0000 -10755.9298 1376.9422 0.0000 0.0000 1760.5200 -7577.0722 296.2494 -9337.5922 -7484.6265 300.4266 -257.3397 -203.9124 30020.6399 -366.9844 -293.8186
ENERGY: 1200000 5.8580 15.4533 21.5105 0.0000 -10718.8284 1466.6476 0.0000 0.0000 1770.3713 -7438.9878 297.9072 -9209.3591 -7469.1228 301.5638 570.3642 624.2687 30383.1280 -273.5403 -201.4387
ENERGY: 1500000 5.5963 11.8889 20.7665 0.0000 -10769.8458 1428.7249 0.0000 0.0000 1761.9765 -7540.8926 296.4945 -9302.8692 -7475.6775 300.7670 -10.8606 42.2977 30887.2199 -204.6504 -138.9909
TCL: Exiting due to exit command.
