Info: SIMULATION PARAMETERS:
Info: TIMESTEP               2
Info: NUMBER OF STEPS        0
Info: STEPS PER CYCLE        10
Info: PERIODIC CELL BASIS 1  30.3042 0 0
Info: PERIODIC CELL BASIS 2  0 29.5884 0
Info: PERIODIC CELL BASIS 3  0 0 34.0002
Info: PERIODIC CELL CENTER   0 0 0
Info: WRAPPING WATERS AROUND PERIODIC BOUNDARIES ON OUTPUT.
Info: WRAPPING ALL CLUSTERS AROUND PERIODIC BOUNDARIES ON OUTPUT.
Info: FIRST LDB TIMESTEP     50
Info: LAST LDB TIMESTEP     -1
Info: HOM BACKGROUND SCALING 1
Info: PME BACKGROUND SCALING 1
Info: MIN ATOMS PER PATCH    40
Info: EMPTY PATCH LOAD       40 ATOMS
Info: VELOCITY FILE          mobley_2078467_equil.vel
Info: CENTER OF MASS MOVING INITIALLY? NO
Info: DIELECTRIC             1
Info: EXCLUDE                SCALED ONE-FOUR
Info: 1-4 ELECTROSTATICS SCALED BY 0.833333
Info: MODIFIED 1-4 VDW PARAMETERS WILL BE USED
Info: DCD FILENAME           mobley_2078467_prod.dcd
Info: DCD FREQUENCY          100000
Info: DCD FIRST STEP         100000
Info: DCD FILE WILL CONTAIN UNIT CELL DATA
Info: XST FILENAME           mobley_2078467_prod.xst
Info: XST FREQUENCY          100000
Info: NO VELOCITY DCD OUTPUT
Info: NO FORCE DCD OUTPUT
Info: OUTPUT FILENAME        mobley_2078467_prod
Info: BINARY OUTPUT FILES WILL BE USED
Info: RESTART FILENAME       mobley_2078467_prod.restart
Info: RESTART FREQUENCY      100000
Info: BINARY RESTART FILES WILL BE USED
Info: CUTOFF                 9
Info: PAIRLIST DISTANCE      11
Info: PAIRLIST SHRINK RATE   0.01
Info: PAIRLIST GROW RATE     0.01
Info: PAIRLIST TRIGGER       0.3
Info: PAIRLISTS PER CYCLE    2
Info: PAIRLISTS ENABLED
Info: MARGIN                 2
Info: HYDROGEN GROUP CUTOFF  2.5
Info: PATCH DIMENSION        15.5
Info: ENERGY OUTPUT STEPS    100000
Info: ENERGY EVALUATION STEPS    100000
Info: OUTPUT ENERGY PRECISION 4
Info: CROSSTERM ENERGY INCLUDED IN DIHEDRAL
Info: TIMING OUTPUT STEPS    1000000
Info: PRESSURE OUTPUT STEPS  100000
Info: ALCHEMICAL FEP ON
Info: FEP CURRENT LAMBDA VALUE     0
Info: FEP COMPARISON LAMBDA VALUE  0.05
Info: FEP INTRA-ALCHEMICAL NON-BONDED INTERACTIONS WILL BE RETAINED
Info: FEP INTRA-ALCHEMICAL BONDED INTERACTIONS WILL BE RETAINED
Info: FEP VDW SHIFTING COEFFICIENT 5
Info: FEP ELEC. ACTIVE FOR ANNIHILATED PARTICLES BETWEEN LAMBDA = 0 AND LAMBDA = 0.5
Info: FEP ELEC. ACTIVE FOR EXNIHILATED PARTICLES BETWEEN LAMBDA = 0.5 AND LAMBDA = 1
Info: FEP VDW ACTIVE FOR ANNIHILATED PARTICLES BETWEEN LAMBDA = 0 AND LAMBDA = 1
Info: FEP VDW ACTIVE FOR EXNIHILATED PARTICLES BETWEEN LAMBDA = 0 AND LAMBDA = 1
Info: FEP BOND ACTIVE FOR ANNIHILATED PARTICLES BETWEEN LAMBDA = 1 AND LAMBDA = 1
Info: FEP BOND ACTIVE FOR EXNIHILATED PARTICLES BETWEEN LAMBDA = 0 AND LAMBDA = 0
Info: LANGEVIN DYNAMICS ACTIVE
Info: LANGEVIN TEMPERATURE   300
Info: LANGEVIN USING BBK INTEGRATOR
Info: LANGEVIN DAMPING COEFFICIENT IS 1 INVERSE PS
Info: LANGEVIN DYNAMICS APPLIED TO HYDROGENS
Info: LANGEVIN PISTON PRESSURE CONTROL ACTIVE
Info:        TARGET PRESSURE IS 1.01325 BAR
Info:     OSCILLATION PERIOD IS 50 FS
Info:             DECAY TIME IS 25 FS
Info:     PISTON TEMPERATURE IS 300 K
Info:       PRESSURE CONTROL IS GROUP-BASED
Info:    INITIAL STRAIN RATE IS -8.35297e-06 -8.35297e-06 -8.35297e-06
Info:       CELL FLUCTUATION IS ISOTROPIC
Info: PARTICLE MESH EWALD (PME) ACTIVE
Info: PME TOLERANCE               1e-06
Info: PME EWALD COEFFICIENT       0.348832
Info: PME INTERPOLATION ORDER     4
Info: PME GRID DIMENSIONS         32 32 36
Info: PME MAXIMUM GRID SPACING    1
Info: PME CALCULATION WILL BE PERFORMED ON GPU
Info: FULL ELECTROSTATIC EVALUATION FREQUENCY      2
Info: USING VERLET I (r-RESPA) MTS SCHEME.
Info: C1 SPLITTING OF LONG RANGE ELECTROSTATICS
Info: PLACING ATOMS IN PATCHES BY HYDROGEN GROUPS
Info: RIGID BONDS TO HYDROGEN : ALL
Info:         ERROR TOLERANCE : 1e-08
Info:          MAX ITERATIONS : 100
Info: RIGID WATER USING SETTLE ALGORITHM
Info: RANDOM NUMBER SEED     1743998731
Info: USE HYDROGEN BONDS?    NO
Info: Using AMBER format force field!
Info: AMBER PARM FILE        mobley_2078467.prmtop
Info: COORDINATE PDB         mobley_2078467.pdb
Info: Exclusions will be read from PARM file!
Info: SCNB (VDW SCALING)     2
Info: USING ARITHMETIC MEAN TO COMBINE L-J SIGMA PARAMETERS
Info: BINARY COORDINATES     mobley_2078467_equil.coor
Info: SUMMARY OF PARAMETERS:
Info: 11 BONDS
Info: 15 ANGLES
Info:   15 HARMONIC
Info:   0 COSINE-BASED
Info: 11 DIHEDRAL
Info: 0 IMPROPER
Info: 0 CROSSTERM
Info: 0 VDW
Info: 36 VDW_PAIRS
Info: 0 NBTHOLE_PAIRS
Info: To read alchdata from file: mobley_2078467.pdb
Info: To read alchflag data from column: 5
Info: STRUCTURE SUMMARY:
Info: 2955 ATOMS
Info: 2955 BONDS
Info: 58 ANGLES
Info: 90 DIHEDRALS
Info: 0 IMPROPERS
Info: 0 CROSSTERMS
Info: 3090 EXCLUSIONS
Info: 2940 RIGID BONDS
Info: ALCH: 0 ATOMS TO DISAPPEAR IN FINAL STATE
Info: ALCH: 33 ATOMS TO APPEAR IN FINAL STATE
Info: 5925 DEGREES OF FREEDOM
Info: 989 HYDROGEN GROUPS
Info: 4 ATOMS IN LARGEST HYDROGEN GROUP
Info: 989 MIGRATION GROUPS
Info: 4 ATOMS IN LARGEST MIGRATION GROUP
Info: TOTAL MASS = 17753.9 amu
Info: TOTAL CHARGE = -0.000199996 e
Info: MASS DENSITY = 0.967042 g/cm^3
Info: ATOM DENSITY = 0.0969284 atoms/A^3
Info: ADDED 0 IMPLICIT EXCLUSIONS
Info: NONBONDED TABLE R-SQUARED SPACING: 0.0625
Info: NONBONDED TABLE SIZE: 705 POINTS
Info: REMOVING COM VELOCITY -0.14653 0.0952688 0.0369647
Info: Use 3D box decompostion in PME FFT.
Info: Updated CUDA force table with 4096 elements.
Info: Updated CUDA LJ table with 8 x 8 elements.
Info: Found 32 unique exclusion lists needing 132 bytes
TCL: Running for 1500000 steps
ETITLE: TS BOND ANGLE DIHED IMPRP ELECT VDW BOUNDARY MISC KINETIC TOTAL TEMP POTENTIAL TOTALAVG TEMPAVG PRESSURE GPRESSURE VOLUME PRESSAVG GPRESSAVG
ENERGY: 0 5.8312 11.1018 4.6033 0.0000 -10732.3481 1512.0154 0.0000 0.0000 1752.5771 -7446.2193 297.7002 -9198.7964 -7446.2193 297.7002 444.3231 529.6244 30486.4254 444.3231 529.6244
ENERGY: 300000 5.1629 14.3861 5.7394 0.0000 -10488.3534 1388.7830 0.0000 0.0000 1752.2158 -7322.0662 297.6389 -9074.2820 -7412.6551 295.7745 -538.1497 -508.8261 30681.9418 -68.8026 -14.0452
ENERGY: 600000 5.4852 15.5535 6.6287 0.0000 -10679.8895 1476.5247 0.0000 0.0000 1688.4412 -7487.2563 286.8058 -9175.6975 -7418.0367 296.7620 341.5111 462.1180 29871.8657 -29.8569 28.9534
ENERGY: 900000 3.7900 16.9260 5.3122 0.0000 -10656.4054 1448.3760 0.0000 0.0000 1798.0111 -7383.9900 305.4178 -9182.0011 -7417.6720 298.3351 225.1202 303.4150 30036.7456 -15.1403 49.4431
ENERGY: 1200000 3.5624 14.3585 4.4131 0.0000 -10702.1434 1468.8303 0.0000 0.0000 1744.8339 -7466.1452 296.3849 -9210.9791 -7427.7341 297.4864 261.2376 247.5971 30345.7319 2.7546 61.6450
ENERGY: 1500000 3.7111 11.9940 6.7153 0.0000 -10639.7540 1457.5161 0.0000 0.0000 1786.7500 -7373.0676 303.5050 -9159.8176 -7424.7694 298.1597 171.5088 271.5868 30534.8965 -24.8941 35.3695
TCL: Running FEP window   2: Lambda1 0.05   Lambda2 0.1    [dLambda 0.05  ]
TCL: Setting parameter firsttimestep to 0
TCL: Setting parameter alchLambda to 0.05
Info: NONBONDED TABLE R-SQUARED SPACING: 0.0625
Info: NONBONDED TABLE SIZE: 705 POINTS
TCL: Setting parameter alchLambda2 to 0.1
Info: NONBONDED TABLE R-SQUARED SPACING: 0.0625
Info: NONBONDED TABLE SIZE: 705 POINTS
TCL: Running for 1500000 steps
ETITLE: TS BOND ANGLE DIHED IMPRP ELECT VDW BOUNDARY MISC KINETIC TOTAL TEMP POTENTIAL TOTALAVG TEMPAVG PRESSURE GPRESSURE VOLUME PRESSAVG GPRESSAVG
ENERGY: 0 3.7111 11.9940 6.7153 0.0000 -10639.7555 1465.5038 0.0000 0.0000 1785.8573 -7365.9741 303.3533 -9151.8314 -7365.9741 303.3533 209.5069 287.7019 30534.8965 209.5069 287.7019
ENERGY: 300000 5.7749 8.4956 7.1422 0.0000 -10737.6310 1452.1701 0.0000 0.0000 1728.5022 -7535.5461 293.6108 -9264.0483 -7445.5681 298.9034 114.4494 189.5948 29690.6901 206.8656 264.4100
ENERGY: 600000 3.7427 17.4317 4.9111 0.0000 -10762.2414 1501.8545 0.0000 0.0000 1778.1082 -7456.1931 302.0370 -9234.3013 -7439.9612 300.5917 327.4237 404.6261 30232.9031 226.6233 286.3858
ENERGY: 900000 6.4790 15.4778 3.5832 0.0000 -10688.6744 1477.4408 0.0000 0.0000 1738.8949 -7446.7987 295.3761 -9185.6936 -7446.5952 298.4672 11.4907 42.1820 30386.7617 -19.8529 40.3055
ENERGY: 1200000 4.5682 12.4180 4.8607 0.0000 -10773.8267 1477.6945 0.0000 0.0000 1776.7639 -7497.5214 301.8087 -9274.2853 -7441.5106 299.6727 150.5055 240.7726 29843.6427 -29.0340 23.3191
ENERGY: 1500000 6.4571 18.3002 5.3468 0.0000 -10585.4919 1353.6179 0.0000 0.0000 1790.5528 -7411.2173 304.1509 -9201.7701 -7432.2566 300.3628 -951.8070 -886.9331 30307.5380 -92.5438 -41.6151
TCL: Running FEP window   3: Lambda1 0.1    Lambda2 0.15000000000000002 [dLambda 0.05000000000000002]
TCL: Setting parameter firsttimestep to 0
TCL: Setting parameter alchLambda to 0.1
Info: NONBONDED TABLE R-SQUARED SPACING: 0.0625
Info: NONBONDED TABLE SIZE: 705 POINTS
TCL: Setting parameter alchLambda2 to 0.15000000000000002
Info: NONBONDED TABLE R-SQUARED SPACING: 0.0625
Info: NONBONDED TABLE SIZE: 705 POINTS
TCL: Running for 1500000 steps
ETITLE: TS BOND ANGLE DIHED IMPRP ELECT VDW BOUNDARY MISC KINETIC TOTAL TEMP POTENTIAL TOTALAVG TEMPAVG PRESSURE GPRESSURE VOLUME PRESSAVG GPRESSAVG
ENERGY: 0 6.4571 18.3002 5.3468 0.0000 -10585.4934 1356.8209 0.0000 0.0000 1789.6866 -7408.8819 304.0038 -9198.5685 -7408.8819 304.0038 -960.0613 -876.9509 30307.5380 -960.0613 -876.9509
ENERGY: 300000 5.8876 16.5301 3.9576 0.0000 -10669.2868 1497.7424 0.0000 0.0000 1770.6989 -7374.4702 300.7785 -9145.1691 -7456.9290 301.0689 742.5837 789.2412 29928.5521 -282.8584 -236.6702
ENERGY: 600000 10.4480 14.7783 5.5880 0.0000 -10749.6941 1526.0492 0.0000 0.0000 1822.8473 -7369.9833 309.6366 -9192.8306 -7433.5760 303.5009 888.9300 875.2845 29964.4400 3.2723 25.7434
ENERGY: 900000 4.6034 13.8911 7.2638 0.0000 -10570.5977 1396.2505 0.0000 0.0000 1772.3690 -7376.2198 301.0622 -9148.5888 -7428.2500 303.8627 -250.1225 -142.5765 30709.9812 -144.5555 -103.1583
ENERGY: 1200000 4.4491 12.0802 7.9334 0.0000 -10622.8081 1404.8169 0.0000 0.0000 1716.4341 -7477.0944 291.5608 -9193.5285 -7424.7122 302.9669 -265.5176 -150.5239 30217.7857 -134.2495 -84.2335
ENERGY: 1500000 5.3685 17.2284 5.6518 0.0000 -10536.0784 1368.8984 0.0000 0.0000 1739.9957 -7398.9356 295.5631 -9138.9313 -7422.3459 302.3487 -443.5361 -400.2165 30388.3510 -96.6534 -47.7069
TCL: Running FEP window   4: Lambda1 0.15000000000000002 Lambda2 0.2    [dLambda 0.04999999999999999]
TCL: Setting parameter firsttimestep to 0
TCL: Setting parameter alchLambda to 0.15000000000000002
Info: NONBONDED TABLE R-SQUARED SPACING: 0.0625
Info: NONBONDED TABLE SIZE: 705 POINTS
TCL: Setting parameter alchLambda2 to 0.2
Info: NONBONDED TABLE R-SQUARED SPACING: 0.0625
Info: NONBONDED TABLE SIZE: 705 POINTS
TCL: Running for 1500000 steps
ETITLE: TS BOND ANGLE DIHED IMPRP ELECT VDW BOUNDARY MISC KINETIC TOTAL TEMP POTENTIAL TOTALAVG TEMPAVG PRESSURE GPRESSURE VOLUME PRESSAVG GPRESSAVG
ENERGY: 0 5.3685 17.2284 5.6518 0.0000 -10536.0780 1369.8708 0.0000 0.0000 1739.1301 -7398.8284 295.4161 -9137.9586 -7398.8284 295.4161 -466.0737 -389.7149 30388.3510 -466.0737 -389.7149
ENERGY: 300000 3.4391 12.3639 3.6681 0.0000 -10556.3398 1368.7132 0.0000 0.0000 1747.8398 -7420.3156 296.8955 -9168.1555 -7418.6564 297.2936 -748.8352 -657.0443 30794.8574 57.9824 148.6765
ENERGY: 600000 7.8718 15.0129 5.3010 0.0000 -10785.1976 1505.0844 0.0000 0.0000 1771.3407 -7480.5869 300.8875 -9251.9276 -7439.1193 298.3710 335.6556 416.7684 29602.3372 -29.7637 51.4535
ENERGY: 900000 5.2991 12.3343 7.2986 0.0000 -10713.4728 1451.7210 0.0000 0.0000 1788.8218 -7447.9979 303.8569 -9236.8197 -7433.4609 300.3828 116.5727 142.9740 29907.2978 25.2580 92.4591
ENERGY: 1200000 4.8460 10.8298 5.0608 0.0000 -10598.1353 1365.8440 0.0000 0.0000 1787.0821 -7424.4727 303.5614 -9211.5547 -7427.5829 300.8872 -646.8395 -567.9524 30289.9106 -38.1027 28.8456
ENERGY: 1500000 4.3601 12.1714 5.8782 0.0000 -10600.2466 1385.2539 0.0000 0.0000 1761.0483 -7431.5348 299.1392 -9192.5831 -7429.5491 300.1791 -493.7333 -409.9982 30137.6015 -39.5222 29.3867
TCL: Running FEP window   5: Lambda1 0.2    Lambda2 0.25   [dLambda 0.04999999999999999]
TCL: Setting parameter firsttimestep to 0
TCL: Setting parameter alchLambda to 0.2
Info: NONBONDED TABLE R-SQUARED SPACING: 0.0625
Info: NONBONDED TABLE SIZE: 705 POINTS
TCL: Setting parameter alchLambda2 to 0.25
Info: NONBONDED TABLE R-SQUARED SPACING: 0.0625
Info: NONBONDED TABLE SIZE: 705 POINTS
TCL: Running for 1500000 steps
ETITLE: TS BOND ANGLE DIHED IMPRP ELECT VDW BOUNDARY MISC KINETIC TOTAL TEMP POTENTIAL TOTALAVG TEMPAVG PRESSURE GPRESSURE VOLUME PRESSAVG GPRESSAVG
ENERGY: 0 4.3601 12.1714 5.8782 0.0000 -10600.2459 1387.1958 0.0000 0.0000 1760.1624 -7430.4781 298.9887 -9190.6405 -7430.4781 298.9887 -474.2545 -397.0144 30137.6015 -474.2545 -397.0144
ENERGY: 300000 5.6596 17.1474 7.0703 0.0000 -10692.9460 1431.3538 0.0000 0.0000 1811.8663 -7419.8487 307.7713 -9231.7150 -7401.3699 304.2115 43.8513 178.5200 30075.4546 -295.2299 -204.9147
ENERGY: 600000 4.8278 13.4058 5.2597 0.0000 -10617.3442 1400.1023 0.0000 0.0000 1772.3994 -7421.3491 301.0673 -9193.7485 -7430.0072 302.4129 -264.7895 -205.1608 30241.2522 -114.2067 -36.5139
ENERGY: 900000 8.7693 13.2381 8.2628 0.0000 -10702.2774 1436.9383 0.0000 0.0000 1733.6019 -7501.4670 294.4770 -9235.0688 -7439.3866 300.9430 -291.0296 -256.7627 30498.3418 -282.6413 -216.6384
ENERGY: 1200000 2.6277 17.7145 4.7241 0.0000 -10673.0523 1412.7395 0.0000 0.0000 1750.2920 -7484.9545 297.3121 -9235.2465 -7445.0332 299.4813 -250.4926 -179.6531 30047.1123 -335.5980 -272.6241
ENERGY: 1500000 5.7640 14.1315 4.2783 0.0000 -10680.1553 1451.7522 0.0000 0.0000 1801.0819 -7403.1474 305.9395 -9204.2293 -7436.7640 300.1027 134.5690 284.3598 30019.6372 -312.7827 -245.7795
TCL: Running FEP window   6: Lambda1 0.25   Lambda2 0.3    [dLambda 0.04999999999999999]
TCL: Setting parameter firsttimestep to 0
TCL: Setting parameter alchLambda to 0.25
Info: NONBONDED TABLE R-SQUARED SPACING: 0.0625
Info: NONBONDED TABLE SIZE: 705 POINTS
TCL: Setting parameter alchLambda2 to 0.3
Info: NONBONDED TABLE R-SQUARED SPACING: 0.0625
Info: NONBONDED TABLE SIZE: 705 POINTS
TCL: Running for 1500000 steps
ETITLE: TS BOND ANGLE DIHED IMPRP ELECT VDW BOUNDARY MISC KINETIC TOTAL TEMP POTENTIAL TOTALAVG TEMPAVG PRESSURE GPRESSURE VOLUME PRESSAVG GPRESSAVG
ENERGY: 0 5.7640 14.1315 4.2783 0.0000 -10680.1561 1452.7049 0.0000 0.0000 1800.2025 -7403.0749 305.7901 -9203.2774 -7403.0749 305.7901 216.8860 296.2506 30019.6372 216.8860 296.2506
ENERGY: 300000 3.1141 10.8212 6.5129 0.0000 -10746.4922 1495.0435 0.0000 0.0000 1801.7484 -7429.2523 306.0527 -9231.0007 -7432.7260 301.9147 370.6306 457.9882 30755.0803 436.6576 526.0783
ENERGY: 600000 2.7644 14.1481 4.7550 0.0000 -10582.9901 1405.5742 0.0000 0.0000 1815.3563 -7340.3920 308.3642 -9155.7484 -7409.5201 303.1174 -181.3860 -100.6037 30542.7865 125.3973 217.7571
ENERGY: 900000 8.4384 10.5244 3.9675 0.0000 -10474.3643 1338.3465 0.0000 0.0000 1839.3425 -7273.7451 312.4386 -9113.0875 -7407.9399 303.3004 -469.6962 -398.7382 29975.3201 -93.5417 -6.0856
ENERGY: 1200000 3.6230 10.9432 5.6971 0.0000 -10571.6995 1432.9022 0.0000 0.0000 1783.7541 -7334.7798 302.9961 -9118.5339 -7400.8495 303.8259 242.2323 303.8332 30369.7566 70.0177 152.4749
ENERGY: 1500000 4.3772 14.4001 3.2469 0.0000 -10576.8556 1349.3920 0.0000 0.0000 1800.9483 -7404.4911 305.9168 -9205.4395 -7408.9749 303.3309 -935.6006 -876.5616 30576.0826 10.2118 85.4190
TCL: Running FEP window   7: Lambda1 0.3    Lambda2 0.35   [dLambda 0.04999999999999999]
TCL: Setting parameter firsttimestep to 0
TCL: Setting parameter alchLambda to 0.3
Info: NONBONDED TABLE R-SQUARED SPACING: 0.0625
Info: NONBONDED TABLE SIZE: 705 POINTS
TCL: Setting parameter alchLambda2 to 0.35
Info: NONBONDED TABLE R-SQUARED SPACING: 0.0625
Info: NONBONDED TABLE SIZE: 705 POINTS
TCL: Running for 1500000 steps
ETITLE: TS BOND ANGLE DIHED IMPRP ELECT VDW BOUNDARY MISC KINETIC TOTAL TEMP POTENTIAL TOTALAVG TEMPAVG PRESSURE GPRESSURE VOLUME PRESSAVG GPRESSAVG
ENERGY: 0 4.3772 14.4001 3.2469 0.0000 -10576.8560 1351.5670 0.0000 0.0000 1800.0690 -7403.1958 305.7674 -9203.2649 -7403.1958 305.7674 -939.0938 -854.5221 30576.0826 -939.0938 -854.5221
ENERGY: 300000 6.1969 9.6308 7.4623 0.0000 -10534.4710 1311.1272 0.0000 0.0000 1766.1746 -7433.8793 300.0099 -9200.0538 -7439.5314 298.4246 -1147.1636 -1146.2507 30578.9443 -603.3848 -572.1462
ENERGY: 600000 3.3272 16.2606 5.9712 0.0000 -10745.2105 1483.7259 0.0000 0.0000 1770.3304 -7465.5953 300.7159 -9235.9256 -7425.4480 299.4793 453.8737 502.3924 30091.8089 -383.9278 -335.6856
ENERGY: 900000 4.5213 15.5664 5.8636 0.0000 -10743.9281 1454.5854 0.0000 0.0000 1692.4922 -7570.8993 287.4939 -9263.3915 -7449.0539 296.8440 -180.2441 -89.4695 30241.7239 -417.4245 -360.7812
ENERGY: 1200000 5.4526 11.3294 5.6169 0.0000 -10560.3164 1384.4477 0.0000 0.0000 1760.0174 -7393.4524 298.9641 -9153.4698 -7445.6759 297.3393 -469.7316 -485.3357 30772.3380 -384.8407 -338.7819
ENERGY: 1500000 3.4175 24.7234 3.4882 0.0000 -10689.2189 1437.3074 0.0000 0.0000 1734.0850 -7486.1975 294.5591 -9220.2824 -7456.4477 297.4878 -140.3226 -104.1659 30355.6522 -312.8093 -269.6349
TCL: Running FEP window   8: Lambda1 0.35   Lambda2 0.39999999999999997 [dLambda 0.04999999999999999]
TCL: Setting parameter firsttimestep to 0
TCL: Setting parameter alchLambda to 0.35
Info: NONBONDED TABLE R-SQUARED SPACING: 0.0625
Info: NONBONDED TABLE SIZE: 705 POINTS
TCL: Setting parameter alchLambda2 to 0.39999999999999997
Info: NONBONDED TABLE R-SQUARED SPACING: 0.0625
Info: NONBONDED TABLE SIZE: 705 POINTS
TCL: Running for 1500000 steps
ETITLE: TS BOND ANGLE DIHED IMPRP ELECT VDW BOUNDARY MISC KINETIC TOTAL TEMP POTENTIAL TOTALAVG TEMPAVG PRESSURE GPRESSURE VOLUME PRESSAVG GPRESSAVG
ENERGY: 0 3.4175 24.7234 3.4882 0.0000 -10689.2192 1437.6738 0.0000 0.0000 1733.2047 -7486.7117 294.4095 -9219.9163 -7486.7117 294.4095 -166.5109 -92.5965 30355.6522 -166.5109 -92.5965
ENERGY: 300000 6.7283 13.3633 4.0429 0.0000 -10534.1407 1376.1745 0.0000 0.0000 1743.2988 -7390.5328 296.1242 -9133.8316 -7439.3112 296.5559 -200.6786 -118.1483 30080.6971 105.3235 176.2007
ENERGY: 600000 7.2184 14.4544 4.8562 0.0000 -10698.6576 1469.4022 0.0000 0.0000 1767.1969 -7435.5294 300.1836 -9202.7263 -7429.1210 298.7579 150.4680 165.3520 30700.7241 49.5276 107.0213
ENERGY: 900000 6.2676 14.3747 3.8027 0.0000 -10862.2123 1549.6265 0.0000 0.0000 1800.2937 -7487.8471 305.8056 -9288.1408 -7431.3215 300.4011 954.6193 1058.8675 29862.5195 126.4951 186.5149
ENERGY: 1200000 6.4929 12.8613 7.5323 0.0000 -10566.5089 1340.5695 0.0000 0.0000 1729.2594 -7469.7934 293.7394 -9199.0529 -7430.0727 300.4112 -744.2617 -681.5573 30113.0712 -57.5502 9.5373
ENERGY: 1500000 2.4688 13.6823 4.9247 0.0000 -10665.8496 1376.0153 0.0000 0.0000 1822.5684 -7446.1900 309.5892 -9268.7584 -7423.6811 301.4185 -690.0628 -616.8505 30283.6038 -71.7183 -2.4029
TCL: Running FEP window   9: Lambda1 0.39999999999999997 Lambda2 0.44999999999999996 [dLambda 0.04999999999999999]
TCL: Setting parameter firsttimestep to 0
TCL: Setting parameter alchLambda to 0.39999999999999997
Info: NONBONDED TABLE R-SQUARED SPACING: 0.0625
Info: NONBONDED TABLE SIZE: 705 POINTS
TCL: Setting parameter alchLambda2 to 0.44999999999999996
Info: NONBONDED TABLE R-SQUARED SPACING: 0.0625
Info: NONBONDED TABLE SIZE: 705 POINTS
TCL: Running for 1500000 steps
ETITLE: TS BOND ANGLE DIHED IMPRP ELECT VDW BOUNDARY MISC KINETIC TOTAL TEMP POTENTIAL TOTALAVG TEMPAVG PRESSURE GPRESSURE VOLUME PRESSAVG GPRESSAVG
ENERGY: 0 2.4688 13.6823 4.9247 0.0000 -10665.8510 1375.8371 0.0000 0.0000 1821.6484 -7447.2897 309.4330 -9268.9381 -7447.2897 309.4330 -693.9803 -608.7076 30283.6038 -693.9803 -608.7076
ENERGY: 300000 7.7438 14.2385 3.6604 0.0000 -10711.5393 1415.1419 0.0000 0.0000 1794.0803 -7476.6745 304.7501 -9270.7548 -7462.4861 304.2927 -463.3983 -387.8560 29969.8023 -299.8208 -243.2295
ENERGY: 600000 6.6678 15.8949 5.4916 0.0000 -10614.7008 1413.7444 0.0000 0.0000 1731.8359 -7441.0663 294.1770 -9172.9021 -7447.8077 301.6391 -299.3167 -234.0740 30533.8138 -216.9501 -146.1572
ENERGY: 900000 5.5658 11.4434 8.0076 0.0000 -10607.9405 1424.3792 0.0000 0.0000 1793.0525 -7365.4920 304.5755 -9158.5445 -7428.2876 302.7400 141.5385 224.9309 30018.3051 -70.3567 -7.5715
ENERGY: 1200000 3.5973 11.5035 4.7270 0.0000 -10651.8678 1413.7677 0.0000 0.0000 1777.4748 -7440.7975 301.9295 -9218.2723 -7441.9924 302.8042 -373.6581 -236.2260 30306.5488 -86.7401 -17.0323
ENERGY: 1500000 7.0781 12.9588 5.5390 0.0000 -10661.9900 1505.2858 0.0000 0.0000 1772.0985 -7359.0298 301.0162 -9131.1284 -7432.1875 302.5268 513.8801 574.4226 30607.8926 -14.2165 59.1844
TCL: Running FEP window  10: Lambda1 0.44999999999999996 Lambda2 0.49999999999999994 [dLambda 0.04999999999999999]
TCL: Setting parameter firsttimestep to 0
TCL: Setting parameter alchLambda to 0.44999999999999996
Info: NONBONDED TABLE R-SQUARED SPACING: 0.0625
Info: NONBONDED TABLE SIZE: 705 POINTS
TCL: Setting parameter alchLambda2 to 0.49999999999999994
Info: NONBONDED TABLE R-SQUARED SPACING: 0.0625
Info: NONBONDED TABLE SIZE: 705 POINTS
TCL: Running for 1500000 steps
ETITLE: TS BOND ANGLE DIHED IMPRP ELECT VDW BOUNDARY MISC KINETIC TOTAL TEMP POTENTIAL TOTALAVG TEMPAVG PRESSURE GPRESSURE VOLUME PRESSAVG GPRESSAVG
ENERGY: 0 7.0781 12.9588 5.5390 0.0000 -10661.9901 1505.0590 0.0000 0.0000 1771.2537 -7360.1015 300.8727 -9131.3553 -7360.1015 300.8727 494.4248 588.0216 30607.8926 494.4248 588.0216
ENERGY: 300000 4.5955 21.2810 8.9016 0.0000 -10404.9363 1293.1862 0.0000 0.0000 1765.5261 -7311.4459 299.8998 -9076.9719 -7378.4867 299.7054 -871.8236 -832.2568 30599.1689 -159.5254 -111.0863
ENERGY: 600000 4.3860 14.8014 3.5531 0.0000 -10689.1224 1404.9025 0.0000 0.0000 1726.8436 -7534.6360 293.3290 -9261.4795 -7426.6461 298.6122 -380.3187 -353.7609 30152.5379 -171.4602 -113.6240
ENERGY: 900000 2.1748 13.4489 5.0177 0.0000 -10758.0590 1476.6458 0.0000 0.0000 1751.1351 -7509.6367 297.4553 -9260.7718 -7445.8621 297.6359 633.7159 640.7384 29604.6120 -21.6650 33.3094
ENERGY: 1200000 3.1171 19.6145 5.1093 0.0000 -10740.5454 1475.0203 0.0000 0.0000 1779.9293 -7457.7549 302.3464 -9237.6841 -7437.0588 298.8268 169.8775 181.8813 30400.5918 -59.8756 -10.7011
ENERGY: 1500000 8.8089 10.4129 4.8346 0.0000 -10574.4805 1398.7781 0.0000 0.0000 1751.2193 -7400.4267 297.4696 -9151.6460 -7435.8145 299.4812 -345.9390 -285.7085 30596.0050 -57.9853 -8.6662
TCL: Running FEP window  11: Lambda1 0.49999999999999994 Lambda2 0.5499999999999999 [dLambda 0.04999999999999999]
TCL: Setting parameter firsttimestep to 0
TCL: Setting parameter alchLambda to 0.49999999999999994
Info: NONBONDED TABLE R-SQUARED SPACING: 0.0625
Info: NONBONDED TABLE SIZE: 705 POINTS
TCL: Setting parameter alchLambda2 to 0.5499999999999999
Info: NONBONDED TABLE R-SQUARED SPACING: 0.0625
Info: NONBONDED TABLE SIZE: 705 POINTS
TCL: Running for 1500000 steps
ETITLE: TS BOND ANGLE DIHED IMPRP ELECT VDW BOUNDARY MISC KINETIC TOTAL TEMP POTENTIAL TOTALAVG TEMPAVG PRESSURE GPRESSURE VOLUME PRESSAVG GPRESSAVG
ENERGY: 0 8.8089 10.4129 4.8346 0.0000 -10574.4811 1398.9938 0.0000 0.0000 1750.3162 -7401.1147 297.3162 -9151.4309 -7401.1147 297.3162 -364.6475 -272.5338 30596.0050 -364.6475 -272.5338
ENERGY: 300000 6.5462 13.7803 6.7372 0.0000 -10640.2343 1396.0140 0.0000 0.0000 1699.6195 -7517.5370 288.7046 -9217.1566 -7425.3895 298.4721 -683.3061 -617.2945 30840.9480 -169.7713 -106.7607
ENERGY: 600000 4.1150 12.5240 8.3396 0.0000 -10623.3929 1377.3910 0.0000 0.0000 1756.8669 -7464.1564 298.4289 -9221.0233 -7439.1301 299.1348 -572.9442 -456.5287 30412.1042 -218.1077 -144.4653
ENERGY: 900000 4.6582 11.7692 8.1009 0.0000 -10635.6774 1485.2880 0.0000 0.0000 1833.5187 -7292.3424 311.4493 -9125.8611 -7435.6755 299.0118 611.5911 629.8981 30310.0250 26.0917 87.9211
ENERGY: 1200000 8.0340 11.2851 5.4817 0.0000 -10557.4319 1384.1353 0.0000 0.0000 1722.5108 -7425.9850 292.5930 -9148.4959 -7443.4853 298.1811 -203.4534 -202.5865 30568.3410 -82.9983 -25.4881
ENERGY: 1500000 7.2968 12.1349 9.4003 0.0000 -10649.7708 1428.2331 0.0000 0.0000 1842.2676 -7350.4380 312.9354 -9192.7056 -7441.4906 298.6605 -266.4482 -205.7019 30827.0682 -144.6835 -91.5237
TCL: Running FEP window  12: Lambda1 0.5499999999999999 Lambda2 0.6    [dLambda 0.050000000000000044]
TCL: Setting parameter firsttimestep to 0
TCL: Setting parameter alchLambda to 0.5499999999999999
Info: NONBONDED TABLE R-SQUARED SPACING: 0.0625
Info: NONBONDED TABLE SIZE: 705 POINTS
TCL: Setting parameter alchLambda2 to 0.6
Info: NONBONDED TABLE R-SQUARED SPACING: 0.0625
Info: NONBONDED TABLE SIZE: 705 POINTS
TCL: Running for 1500000 steps
ETITLE: TS BOND ANGLE DIHED IMPRP ELECT VDW BOUNDARY MISC KINETIC TOTAL TEMP POTENTIAL TOTALAVG TEMPAVG PRESSURE GPRESSURE VOLUME PRESSAVG GPRESSAVG
ENERGY: 0 7.2968 12.1349 9.4003 0.0000 -10650.2159 1427.6029 0.0000 0.0000 1841.3914 -7352.3896 312.7866 -9193.7810 -7352.3896 312.7866 -285.8876 -198.0555 30827.0682 -285.8876 -198.0555
ENERGY: 300000 5.0328 14.4409 6.8444 0.0000 -10594.1241 1393.5545 0.0000 0.0000 1767.8575 -7406.3941 300.2958 -9174.2515 -7423.7389 301.8007 -328.4962 -224.9442 30460.1022 -246.8299 -153.0709
ENERGY: 600000 7.4127 15.9330 4.5608 0.0000 -10655.7868 1405.0356 0.0000 0.0000 1826.2510 -7396.5936 310.2148 -9222.8446 -7421.3075 303.5174 -131.9240 -102.7125 30421.9697 -118.4706 -38.0915
ENERGY: 900000 6.1877 10.8913 4.1893 0.0000 -10704.4121 1476.5741 0.0000 0.0000 1742.6263 -7463.9434 296.0099 -9206.5697 -7421.6846 303.0545 179.1833 243.7778 30436.6680 -9.1458 62.2612
ENERGY: 1200000 7.3623 10.6730 5.0226 0.0000 -10686.0506 1447.0743 0.0000 0.0000 1784.3229 -7431.5955 303.0927 -9215.9184 -7426.4138 303.3136 96.9819 226.6614 30159.6498 -77.8301 -5.6653
ENERGY: 1500000 4.5484 10.5849 3.7406 0.0000 -10661.8086 1446.6250 0.0000 0.0000 1698.1360 -7498.1737 288.4526 -9196.3097 -7438.4197 301.8579 3.1375 92.7042 30454.2084 -99.9142 -26.3544
TCL: Running FEP window  13: Lambda1 0.6    Lambda2 0.65   [dLambda 0.050000000000000044]
TCL: Setting parameter firsttimestep to 0
TCL: Setting parameter alchLambda to 0.6
Info: NONBONDED TABLE R-SQUARED SPACING: 0.0625
Info: NONBONDED TABLE SIZE: 705 POINTS
TCL: Setting parameter alchLambda2 to 0.65
Info: NONBONDED TABLE R-SQUARED SPACING: 0.0625
Info: NONBONDED TABLE SIZE: 705 POINTS
TCL: Running for 1500000 steps
ETITLE: TS BOND ANGLE DIHED IMPRP ELECT VDW BOUNDARY MISC KINETIC TOTAL TEMP POTENTIAL TOTALAVG TEMPAVG PRESSURE GPRESSURE VOLUME PRESSAVG GPRESSAVG
ENERGY: 0 4.5484 10.5849 3.7406 0.0000 -10662.2091 1446.6276 0.0000 0.0000 1697.2284 -7499.4791 288.2985 -9196.7076 -7499.4791 288.2985 26.0906 104.5698 30454.2084 26.0906 104.5698
ENERGY: 300000 5.5842 18.1820 4.5425 0.0000 -10671.6966 1454.3940 0.0000 0.0000 1810.6752 -7378.3188 307.5690 -9188.9939 -7446.2581 301.2232 208.0808 383.6279 30295.1470 -16.4049 76.4310
ENERGY: 600000 3.1824 21.4888 4.4255 0.0000 -10679.2027 1430.8175 0.0000 0.0000 1737.7116 -7481.5769 295.1751 -9219.2885 -7443.7806 300.5726 67.4866 115.0161 30227.6202 -119.8498 -52.7096
ENERGY: 900000 4.0583 16.2008 5.8629 0.0000 -10590.2784 1372.6524 0.0000 0.0000 1780.6858 -7410.8181 302.4749 -9191.5040 -7456.1645 299.8161 -619.0506 -558.6719 30896.9899 -170.8419 -109.8693
ENERGY: 1200000 5.1387 13.4638 6.4011 0.0000 -10693.8942 1450.2326 0.0000 0.0000 1843.0827 -7375.5752 313.0739 -9218.6579 -7443.9029 301.5459 556.7647 593.5281 29930.3793 -205.7907 -147.9826
ENERGY: 1500000 7.5102 19.7835 5.5197 0.0000 -10576.2726 1381.5256 0.0000 0.0000 1761.7105 -7400.2232 299.2517 -9161.9337 -7434.4856 301.8435 -312.0553 -257.0392 30370.6042 -176.4281 -116.1055
TCL: Running FEP window  14: Lambda1 0.65   Lambda2 0.7000000000000001 [dLambda 0.050000000000000044]
TCL: Setting parameter firsttimestep to 0
TCL: Setting parameter alchLambda to 0.65
Info: NONBONDED TABLE R-SQUARED SPACING: 0.0625
Info: NONBONDED TABLE SIZE: 705 POINTS
TCL: Setting parameter alchLambda2 to 0.7000000000000001
Info: NONBONDED TABLE R-SQUARED SPACING: 0.0625
Info: NONBONDED TABLE SIZE: 705 POINTS
TCL: Running for 1500000 steps
ETITLE: TS BOND ANGLE DIHED IMPRP ELECT VDW BOUNDARY MISC KINETIC TOTAL TEMP POTENTIAL TOTALAVG TEMPAVG PRESSURE GPRESSURE VOLUME PRESSAVG GPRESSAVG
ENERGY: 0 7.5102 19.7835 5.5197 0.0000 -10576.8813 1381.0462 0.0000 0.0000 1760.8685 -7402.1532 299.1086 -9163.0217 -7402.1532 299.1086 -343.0046 -252.2395 30370.6042 -343.0046 -252.2395
ENERGY: 300000 4.2399 11.5200 3.8441 0.0000 -10541.1316 1323.6356 0.0000 0.0000 1830.4508 -7367.4411 310.9282 -9197.8920 -7414.3013 302.0895 -940.0758 -864.8250 30662.5386 -303.3054 -224.4111
ENERGY: 600000 2.7716 12.9077 6.0151 0.0000 -10623.6411 1344.3185 0.0000 0.0000 1788.0083 -7469.6198 303.7187 -9257.6281 -7440.9609 302.3950 -783.4396 -712.4055 30387.3298 -268.3420 -189.5406
ENERGY: 900000 3.1423 9.1465 4.9965 0.0000 -10511.6586 1389.7330 0.0000 0.0000 1772.6539 -7331.9864 301.1106 -9104.6403 -7431.2635 301.4714 101.0185 138.7421 30544.6449 -199.2752 -121.0689
ENERGY: 1200000 3.5094 13.7624 3.3124 0.0000 -10682.2728 1446.6808 0.0000 0.0000 1737.6543 -7477.3535 295.1654 -9215.0078 -7443.5540 300.5662 217.5690 215.6946 30459.2071 -170.0200 -101.3718
ENERGY: 1500000 4.9506 8.7072 5.6082 0.0000 -10691.1159 1446.7715 0.0000 0.0000 1777.1623 -7447.9161 301.8764 -9225.0784 -7440.0830 301.0526 155.2162 203.2566 30021.5561 -120.5660 -55.7047
TCL: Running FEP window  15: Lambda1 0.7000000000000001 Lambda2 0.7500000000000001 [dLambda 0.050000000000000044]
TCL: Setting parameter firsttimestep to 0
TCL: Setting parameter alchLambda to 0.7000000000000001
Info: NONBONDED TABLE R-SQUARED SPACING: 0.0625
Info: NONBONDED TABLE SIZE: 705 POINTS
TCL: Setting parameter alchLambda2 to 0.7500000000000001
Info: NONBONDED TABLE R-SQUARED SPACING: 0.0625
Info: NONBONDED TABLE SIZE: 705 POINTS
TCL: Running for 1500000 steps
ETITLE: TS BOND ANGLE DIHED IMPRP ELECT VDW BOUNDARY MISC KINETIC TOTAL TEMP POTENTIAL TOTALAVG TEMPAVG PRESSURE GPRESSURE VOLUME PRESSAVG GPRESSAVG
ENERGY: 0 4.9506 8.7072 5.6082 0.0000 -10692.2422 1446.5843 0.0000 0.0000 1776.2711 -7450.1207 301.7250 -9226.3918 -7450.1207 301.7250 125.3706 212.9600 30021.5561 125.3706 212.9600
ENERGY: 300000 3.4404 8.2731 5.2507 0.0000 -10571.9221 1336.3543 0.0000 0.0000 1780.6993 -7437.9044 302.4772 -9218.6036 -7475.2867 296.2775 -697.6938 -608.4572 30346.3240 -130.2702 -74.2419
ENERGY: 600000 5.9710 13.7305 8.1016 0.0000 -10561.8897 1364.5519 0.0000 0.0000 1838.6758 -7330.8591 312.3253 -9169.5348 -7443.0838 300.7515 -557.6838 -460.5690 30342.0256 31.4811 95.9942
ENERGY: 900000 4.1215 12.5356 9.1163 0.0000 -10690.3521 1484.0360 0.0000 0.0000 1791.2318 -7389.3108 304.2663 -9180.5426 -7434.1530 301.3344 523.0507 635.6671 30499.7945 -7.4001 71.5291
ENERGY: 1200000 9.4909 21.7309 7.6765 0.0000 -10687.1340 1396.1961 0.0000 0.0000 1747.7492 -7504.2905 296.8801 -9252.0397 -7451.6182 299.7155 -790.8136 -676.6266 30659.7836 -172.0016 -96.8165
ENERGY: 1500000 10.1147 16.5024 12.0385 0.0000 -10683.4658 1406.6860 0.0000 0.0000 1791.7734 -7446.3509 304.3583 -9238.1242 -7449.7976 299.9294 -372.7812 -362.4934 30448.4530 -159.4720 -89.5861
TCL: Running FEP window  16: Lambda1 0.7500000000000001 Lambda2 0.8000000000000002 [dLambda 0.050000000000000044]
TCL: Setting parameter firsttimestep to 0
TCL: Setting parameter alchLambda to 0.7500000000000001
Info: NONBONDED TABLE R-SQUARED SPACING: 0.0625
Info: NONBONDED TABLE SIZE: 705 POINTS
TCL: Setting parameter alchLambda2 to 0.8000000000000002
Info: NONBONDED TABLE R-SQUARED SPACING: 0.0625
Info: NONBONDED TABLE SIZE: 705 POINTS
TCL: Running for 1500000 steps
ETITLE: TS BOND ANGLE DIHED IMPRP ELECT VDW BOUNDARY MISC KINETIC TOTAL TEMP POTENTIAL TOTALAVG TEMPAVG PRESSURE GPRESSURE VOLUME PRESSAVG GPRESSAVG
ENERGY: 0 10.1147 16.5024 12.0385 0.0000 -10685.8816 1408.6398 0.0000 0.0000 1790.8724 -7447.7138 304.2052 -9238.5862 -7447.7138 304.2052 -413.3642 -333.4397 30448.4530 -413.3642 -333.4397
ENERGY: 300000 5.3001 20.9887 6.8256 0.0000 -10847.2671 1492.4612 0.0000 0.0000 1792.7317 -7528.9597 304.5211 -9321.6914 -7439.5477 306.2334 583.5168 593.1961 29818.7531 58.4384 104.7163
ENERGY: 600000 5.7147 20.5642 8.1548 0.0000 -10660.9410 1426.4506 0.0000 0.0000 1761.6890 -7438.3675 299.2480 -9200.0566 -7437.2783 303.6383 106.6077 134.9892 30323.0766 58.4695 108.2309
ENERGY: 900000 3.2162 15.9564 9.9073 0.0000 -10692.1425 1456.2014 0.0000 0.0000 1714.0518 -7492.8093 291.1562 -9206.8612 -7443.3391 301.7239 278.9142 349.9674 30191.7619 50.9028 114.2824
ENERGY: 1200000 7.0471 21.9029 10.3226 0.0000 -10773.0354 1464.9954 0.0000 0.0000 1745.4378 -7523.3297 296.4875 -9268.7674 -7448.5694 301.3257 259.0663 350.4729 30296.3396 61.3319 135.1441
ENERGY: 1500000 7.8808 17.4563 11.2550 0.0000 -10613.8674 1323.2847 0.0000 0.0000 1782.2485 -7471.7423 302.7403 -9253.9908 -7448.8059 301.5738 -1284.4344 -1219.6640 30565.6500 -41.3966 30.7938
TCL: Running FEP window  17: Lambda1 0.8000000000000002 Lambda2 0.8500000000000002 [dLambda 0.050000000000000044]
TCL: Setting parameter firsttimestep to 0
TCL: Setting parameter alchLambda to 0.8000000000000002
Info: NONBONDED TABLE R-SQUARED SPACING: 0.0625
Info: NONBONDED TABLE SIZE: 705 POINTS
TCL: Setting parameter alchLambda2 to 0.8500000000000002
Info: NONBONDED TABLE R-SQUARED SPACING: 0.0625
Info: NONBONDED TABLE SIZE: 705 POINTS
TCL: Running for 1500000 steps
ETITLE: TS BOND ANGLE DIHED IMPRP ELECT VDW BOUNDARY MISC KINETIC TOTAL TEMP POTENTIAL TOTALAVG TEMPAVG PRESSURE GPRESSURE VOLUME PRESSAVG GPRESSAVG
ENERGY: 0 7.8808 17.4563 11.2550 0.0000 -10615.9250 1323.2312 0.0000 0.0000 1781.3467 -7474.7551 302.5872 -9256.1018 -7474.7551 302.5872 -1282.2395 -1209.9661 30565.6500 -1282.2395 -1209.9661
ENERGY: 300000 4.1532 16.9888 7.3417 0.0000 -10810.9950 1563.1471 0.0000 0.0000 1789.4512 -7429.9130 303.9638 -9219.3642 -7445.6470 301.4732 1135.1399 1131.7343 30469.0831 73.0522 103.2647
ENERGY: 600000 5.4630 16.6812 7.6583 0.0000 -10538.6425 1323.8799 0.0000 0.0000 1751.2535 -7433.7066 297.4754 -9184.9601 -7440.6025 300.3221 -385.4544 -341.6393 30192.4545 -93.7425 -48.2112
ENERGY: 900000 8.7672 16.9001 7.5139 0.0000 -10646.4882 1369.6461 0.0000 0.0000 1808.7477 -7434.9133 307.2416 -9243.6610 -7449.7002 300.3011 -466.4015 -430.3096 30154.2627 -140.1241 -100.6445
ENERGY: 1200000 3.3493 19.6266 6.8118 0.0000 -10791.4138 1491.4903 0.0000 0.0000 1771.6364 -7498.4995 300.9377 -9270.1359 -7452.1546 300.6559 428.2788 455.4894 30479.8268 -108.8475 -60.2962
ENERGY: 1500000 3.0947 17.5700 9.1683 0.0000 -10668.8650 1422.7034 0.0000 0.0000 1714.4506 -7501.8780 291.2239 -9216.3286 -7459.6572 299.8076 -106.8151 -72.0402 30451.7054 -22.8225 29.3989
TCL: Running FEP window  18: Lambda1 0.8500000000000002 Lambda2 0.9000000000000002 [dLambda 0.050000000000000044]
TCL: Setting parameter firsttimestep to 0
TCL: Setting parameter alchLambda to 0.8500000000000002
Info: NONBONDED TABLE R-SQUARED SPACING: 0.0625
Info: NONBONDED TABLE SIZE: 705 POINTS
TCL: Setting parameter alchLambda2 to 0.9000000000000002
Info: NONBONDED TABLE R-SQUARED SPACING: 0.0625
Info: NONBONDED TABLE SIZE: 705 POINTS
TCL: Running for 1500000 steps
ETITLE: TS BOND ANGLE DIHED IMPRP ELECT VDW BOUNDARY MISC KINETIC TOTAL TEMP POTENTIAL TOTALAVG TEMPAVG PRESSURE GPRESSURE VOLUME PRESSAVG GPRESSAVG
ENERGY: 0 3.0947 17.5700 9.1683 0.0000 -10670.7926 1422.7652 0.0000 0.0000 1713.5961 -7504.5982 291.0788 -9218.1944 -7504.5982 291.0788 -133.8547 -57.6726 30451.7054 -133.8547 -57.6726
ENERGY: 300000 3.8899 19.3464 9.2567 0.0000 -10651.0901 1422.0303 0.0000 0.0000 1769.7367 -7426.8301 300.6150 -9196.5668 -7466.7889 301.7448 78.2041 57.4203 30662.2634 -152.0486 -137.6807
ENERGY: 600000 4.7356 13.9811 7.7577 0.0000 -10639.1082 1383.3460 0.0000 0.0000 1788.6068 -7440.6810 303.8204 -9229.2878 -7467.5633 301.4760 -558.8964 -544.1784 30810.5505 -60.4424 -32.5182
ENERGY: 900000 6.3974 14.8099 7.4342 0.0000 -10747.8155 1464.7311 0.0000 0.0000 1742.8634 -7511.5795 296.0502 -9254.4429 -7475.6945 299.6413 141.9246 233.0564 30411.9353 -83.7073 -46.3999
ENERGY: 1200000 9.6701 15.2458 7.1092 0.0000 -10620.7095 1473.6334 0.0000 0.0000 1758.6710 -7356.3799 298.7354 -9115.0510 -7464.5645 299.4931 245.2531 299.1482 30929.8120 -70.1878 -29.6431
ENERGY: 1500000 6.0356 9.2137 6.9568 0.0000 -10708.9127 1391.3030 0.0000 0.0000 1751.9831 -7543.4206 297.5993 -9295.4036 -7465.4474 299.0234 -109.8311 -144.2201 30001.8744 -115.6431 -79.0207
TCL: Running FEP window  19: Lambda1 0.9000000000000002 Lambda2 0.9500000000000003 [dLambda 0.050000000000000044]
TCL: Setting parameter firsttimestep to 0
TCL: Setting parameter alchLambda to 0.9000000000000002
Info: NONBONDED TABLE R-SQUARED SPACING: 0.0625
Info: NONBONDED TABLE SIZE: 705 POINTS
TCL: Setting parameter alchLambda2 to 0.9500000000000003
Info: NONBONDED TABLE R-SQUARED SPACING: 0.0625
Info: NONBONDED TABLE SIZE: 705 POINTS
TCL: Running for 1500000 steps
ETITLE: TS BOND ANGLE DIHED IMPRP ELECT VDW BOUNDARY MISC KINETIC TOTAL TEMP POTENTIAL TOTALAVG TEMPAVG PRESSURE GPRESSURE VOLUME PRESSAVG GPRESSAVG
ENERGY: 0 6.0356 9.2137 6.9568 0.0000 -10711.1646 1392.5686 0.0000 0.0000 1751.1104 -7545.2796 297.4511 -9296.3900 -7545.2796 297.4511 -183.6332 -115.6764 30001.8744 -183.6332 -115.6764
ENERGY: 300000 3.2643 19.6742 10.2632 0.0000 -10769.5773 1499.3471 0.0000 0.0000 1732.6041 -7504.4244 294.3075 -9237.0285 -7521.5203 294.8555 295.2504 383.0692 30366.4527 254.3587 315.6583
ENERGY: 600000 2.2508 15.5140 9.2192 0.0000 -10751.8510 1455.4344 0.0000 0.0000 1777.3971 -7492.0355 301.9163 -9269.4327 -7491.0151 298.1314 121.3768 156.1624 30470.1351 69.9566 135.4700
ENERGY: 900000 4.9016 14.8562 12.4523 0.0000 -10654.2574 1396.6950 0.0000 0.0000 1770.5670 -7454.7852 300.7561 -9225.3523 -7481.2009 298.2629 -234.8055 -135.9365 30190.0669 -47.4379 21.2200
ENERGY: 1200000 5.3474 16.9256 6.8947 0.0000 -10840.9546 1559.4636 0.0000 0.0000 1723.6107 -7528.7125 292.7799 -9252.3232 -7476.5091 298.3480 1189.1811 1212.0160 29772.7196 117.7285 182.8868
ENERGY: 1500000 7.3762 12.6051 10.0261 0.0000 -10662.1308 1378.4218 0.0000 0.0000 1816.2149 -7437.4866 308.5100 -9253.7015 -7472.5898 299.1241 -609.0014 -496.3120 30399.1473 28.9058 94.8390
TCL: Running FEP window  20: Lambda1 0.9500000000000003 Lambda2 1.0    [dLambda 0.04999999999999971]
TCL: Setting parameter firsttimestep to 0
TCL: Setting parameter alchLambda to 0.9500000000000003
Info: NONBONDED TABLE R-SQUARED SPACING: 0.0625
Info: NONBONDED TABLE SIZE: 705 POINTS
TCL: Setting parameter alchLambda2 to 1.0
Info: NONBONDED TABLE R-SQUARED SPACING: 0.0625
Info: NONBONDED TABLE SIZE: 705 POINTS
TCL: Running for 1500000 steps
ETITLE: TS BOND ANGLE DIHED IMPRP ELECT VDW BOUNDARY MISC KINETIC TOTAL TEMP POTENTIAL TOTALAVG TEMPAVG PRESSURE GPRESSURE VOLUME PRESSAVG GPRESSAVG
ENERGY: 0 7.3762 12.6051 10.0261 0.0000 -10664.2333 1380.2590 0.0000 0.0000 1815.3456 -7438.6212 308.3623 -9253.9668 -7438.6212 308.3623 -535.7358 -452.8195 30399.1473 -535.7358 -452.8195
ENERGY: 300000 4.2897 15.9181 9.5334 0.0000 -10563.3799 1383.7934 0.0000 0.0000 1761.6860 -7388.1592 299.2475 -9149.8452 -7448.6853 300.1110 -297.3540 -168.6190 30666.2954 -193.9582 -112.2482
ENERGY: 600000 5.0260 11.2099 9.7765 0.0000 -10681.8559 1452.1068 0.0000 0.0000 1751.2737 -7452.4630 297.4788 -9203.7367 -7453.7475 300.7838 143.3366 208.1963 30571.7113 62.5852 125.4646
ENERGY: 900000 6.8496 10.9872 6.5743 0.0000 -10780.4689 1479.5545 0.0000 0.0000 1732.3500 -7544.1534 294.2644 -9276.5033 -7463.9102 299.7591 282.0379 317.6071 30665.4760 -14.3278 40.7064
ENERGY: 1200000 4.5812 11.1783 8.2685 0.0000 -10604.9169 1399.3316 0.0000 0.0000 1818.5524 -7363.0049 308.9071 -9181.5573 -7458.8558 299.5489 67.8856 157.1045 30407.7403 27.8138 84.4709
ENERGY: 1500000 5.0970 20.5972 8.4029 0.0000 -10664.8397 1428.1329 0.0000 0.0000 1830.1061 -7372.5036 310.8696 -9202.6097 -7449.0700 301.0659 192.3197 323.5530 30409.9266 30.5401 88.7947
TCL: Exiting due to exit command.
