Info: SIMULATION PARAMETERS:
Info: TIMESTEP               2
Info: NUMBER OF STEPS        0
Info: STEPS PER CYCLE        10
Info: PERIODIC CELL BASIS 1  29.1031 0 0
Info: PERIODIC CELL BASIS 2  0 30.2555 0
Info: PERIODIC CELL BASIS 3  0 0 33.8931
Info: PERIODIC CELL CENTER   0 0 0
Info: WRAPPING WATERS AROUND PERIODIC BOUNDARIES ON OUTPUT.
Info: WRAPPING ALL CLUSTERS AROUND PERIODIC BOUNDARIES ON OUTPUT.
Info: FIRST LDB TIMESTEP     50
Info: LAST LDB TIMESTEP     -1
Info: HOM BACKGROUND SCALING 1
Info: PME BACKGROUND SCALING 1
Info: MIN ATOMS PER PATCH    40
Info: EMPTY PATCH LOAD       40 ATOMS
Info: VELOCITY FILE          mobley_3318135_equil.vel
Info: CENTER OF MASS MOVING INITIALLY? NO
Info: DIELECTRIC             1
Info: EXCLUDE                SCALED ONE-FOUR
Info: 1-4 ELECTROSTATICS SCALED BY 0.833333
Info: MODIFIED 1-4 VDW PARAMETERS WILL BE USED
Info: DCD FILENAME           mobley_3318135_prod.dcd
Info: DCD FREQUENCY          100000
Info: DCD FIRST STEP         100000
Info: DCD FILE WILL CONTAIN UNIT CELL DATA
Info: XST FILENAME           mobley_3318135_prod.xst
Info: XST FREQUENCY          100000
Info: NO VELOCITY DCD OUTPUT
Info: NO FORCE DCD OUTPUT
Info: OUTPUT FILENAME        mobley_3318135_prod
Info: BINARY OUTPUT FILES WILL BE USED
Info: RESTART FILENAME       mobley_3318135_prod.restart
Info: RESTART FREQUENCY      100000
Info: BINARY RESTART FILES WILL BE USED
Info: CUTOFF                 9
Info: PAIRLIST DISTANCE      11
Info: PAIRLIST SHRINK RATE   0.01
Info: PAIRLIST GROW RATE     0.01
Info: PAIRLIST TRIGGER       0.3
Info: PAIRLISTS PER CYCLE    2
Info: PAIRLISTS ENABLED
Info: MARGIN                 2
Info: HYDROGEN GROUP CUTOFF  2.5
Info: PATCH DIMENSION        15.5
Info: ENERGY OUTPUT STEPS    100000
Info: ENERGY EVALUATION STEPS    100000
Info: OUTPUT ENERGY PRECISION 4
Info: CROSSTERM ENERGY INCLUDED IN DIHEDRAL
Info: TIMING OUTPUT STEPS    1000000
Info: PRESSURE OUTPUT STEPS  100000
Info: ALCHEMICAL FEP ON
Info: FEP CURRENT LAMBDA VALUE     1
Info: FEP COMPARISON LAMBDA VALUE  0.95
Info: FEP INTRA-ALCHEMICAL NON-BONDED INTERACTIONS WILL BE RETAINED
Info: FEP INTRA-ALCHEMICAL BONDED INTERACTIONS WILL BE RETAINED
Info: FEP VDW SHIFTING COEFFICIENT 5
Info: FEP ELEC. ACTIVE FOR ANNIHILATED PARTICLES BETWEEN LAMBDA = 0 AND LAMBDA = 0.5
Info: FEP ELEC. ACTIVE FOR EXNIHILATED PARTICLES BETWEEN LAMBDA = 0.5 AND LAMBDA = 1
Info: FEP VDW ACTIVE FOR ANNIHILATED PARTICLES BETWEEN LAMBDA = 0 AND LAMBDA = 1
Info: FEP VDW ACTIVE FOR EXNIHILATED PARTICLES BETWEEN LAMBDA = 0 AND LAMBDA = 1
Info: FEP BOND ACTIVE FOR ANNIHILATED PARTICLES BETWEEN LAMBDA = 1 AND LAMBDA = 1
Info: FEP BOND ACTIVE FOR EXNIHILATED PARTICLES BETWEEN LAMBDA = 0 AND LAMBDA = 0
Info: LANGEVIN DYNAMICS ACTIVE
Info: LANGEVIN TEMPERATURE   300
Info: LANGEVIN USING BBK INTEGRATOR
Info: LANGEVIN DAMPING COEFFICIENT IS 1 INVERSE PS
Info: LANGEVIN DYNAMICS APPLIED TO HYDROGENS
Info: LANGEVIN PISTON PRESSURE CONTROL ACTIVE
Info:        TARGET PRESSURE IS 1.01325 BAR
Info:     OSCILLATION PERIOD IS 50 FS
Info:             DECAY TIME IS 25 FS
Info:     PISTON TEMPERATURE IS 300 K
Info:       PRESSURE CONTROL IS GROUP-BASED
Info:    INITIAL STRAIN RATE IS -0.000408252 -0.000408252 -0.000408252
Info:       CELL FLUCTUATION IS ISOTROPIC
Info: PARTICLE MESH EWALD (PME) ACTIVE
Info: PME TOLERANCE               1e-06
Info: PME EWALD COEFFICIENT       0.348832
Info: PME INTERPOLATION ORDER     4
Info: PME GRID DIMENSIONS         32 32 36
Info: PME MAXIMUM GRID SPACING    1
Info: PME CALCULATION WILL BE PERFORMED ON GPU
Info: FULL ELECTROSTATIC EVALUATION FREQUENCY      2
Info: USING VERLET I (r-RESPA) MTS SCHEME.
Info: C1 SPLITTING OF LONG RANGE ELECTROSTATICS
Info: PLACING ATOMS IN PATCHES BY HYDROGEN GROUPS
Info: RIGID BONDS TO HYDROGEN : ALL
Info:         ERROR TOLERANCE : 1e-08
Info:          MAX ITERATIONS : 100
Info: RIGID WATER USING SETTLE ALGORITHM
Info: RANDOM NUMBER SEED     1744072489
Info: USE HYDROGEN BONDS?    NO
Info: Using AMBER format force field!
Info: AMBER PARM FILE        mobley_3318135.prmtop
Info: COORDINATE PDB         mobley_3318135.pdb
Info: Exclusions will be read from PARM file!
Info: SCNB (VDW SCALING)     2
Info: USING ARITHMETIC MEAN TO COMBINE L-J SIGMA PARAMETERS
Info: BINARY COORDINATES     mobley_3318135_equil.coor
Info: SUMMARY OF PARAMETERS:
Info: 6 BONDS
Info: 7 ANGLES
Info:   7 HARMONIC
Info:   0 COSINE-BASED
Info: 11 DIHEDRAL
Info: 0 IMPROPER
Info: 0 CROSSTERM
Info: 0 VDW
Info: 21 VDW_PAIRS
Info: 0 NBTHOLE_PAIRS
Info: To read alchdata from file: mobley_3318135.pdb
Info: To read alchflag data from column: 5
Info: STRUCTURE SUMMARY:
Info: 2902 ATOMS
Info: 2901 BONDS
Info: 51 ANGLES
Info: 79 DIHEDRALS
Info: 0 IMPROPERS
Info: 0 CROSSTERMS
Info: 3018 EXCLUSIONS
Info: 2892 RIGID BONDS
Info: ALCH: 0 ATOMS TO DISAPPEAR IN FINAL STATE
Info: ALCH: 28 ATOMS TO APPEAR IN FINAL STATE
Info: 5814 DEGREES OF FREEDOM
Info: 968 HYDROGEN GROUPS
Info: 4 ATOMS IN LARGEST HYDROGEN GROUP
Info: 968 MIGRATION GROUPS
Info: 4 ATOMS IN LARGEST MIGRATION GROUP
Info: TOTAL MASS = 17401.6 amu
Info: TOTAL CHARGE = -0.000400022 e
Info: MASS DENSITY = 0.968262 g/cm^3
Info: ATOM DENSITY = 0.0972395 atoms/A^3
Info: ADDED 0 IMPLICIT EXCLUSIONS
Info: NONBONDED TABLE R-SQUARED SPACING: 0.0625
Info: NONBONDED TABLE SIZE: 705 POINTS
Info: REMOVING COM VELOCITY 0.133497 0.129174 -0.161363
Info: Use 3D box decompostion in PME FFT.
Info: Updated CUDA force table with 4096 elements.
Info: Updated CUDA LJ table with 6 x 6 elements.
Info: Found 29 unique exclusion lists needing 104 bytes
TCL: Running for 1500000 steps
ETITLE: TS BOND ANGLE DIHED IMPRP ELECT VDW BOUNDARY MISC KINETIC TOTAL TEMP POTENTIAL TOTALAVG TEMPAVG PRESSURE GPRESSURE VOLUME PRESSAVG GPRESSAVG
ENERGY: 0 1.6447 14.4655 4.8891 0.0000 -10394.3907 1339.0275 0.0000 0.0000 1709.6805 -7324.6834 295.9581 -9034.3638 -7324.6834 295.9581 -471.1187 -403.4349 29843.8313 -471.1187 -403.4349
ENERGY: 300000 1.4457 12.2618 5.8398 0.0000 -10469.3286 1398.8966 0.0000 0.0000 1753.0613 -7297.8234 303.4677 -9050.8847 -7319.6688 302.5810 -25.5302 84.5087 29904.4331 14.5879 70.2397
ENERGY: 600000 1.0340 11.4473 5.3475 0.0000 -10399.5826 1392.5840 0.0000 0.0000 1681.9768 -7307.1929 291.1624 -8989.1697 -7329.6039 298.1571 -35.3644 41.8982 30059.5878 59.4345 109.1527
ENERGY: 900000 5.1259 13.2506 8.6512 0.0000 -10404.1207 1367.2372 0.0000 0.0000 1724.2590 -7285.5969 298.4818 -9009.8559 -7319.7643 298.7677 -20.1164 -1.6901 29718.0450 -22.0281 26.5068
ENERGY: 1200000 1.3812 9.3913 5.8926 0.0000 -10476.3417 1448.2442 0.0000 0.0000 1738.4974 -7272.9351 300.9466 -9011.4325 -7311.8983 299.2802 565.6476 578.1219 30204.3015 -28.8118 15.3708
ENERGY: 1500000 2.4855 12.4725 6.2048 0.0000 -10580.8567 1527.0827 0.0000 0.0000 1764.8904 -7267.7207 305.5154 -9032.6112 -7309.9429 300.0568 1091.7398 1187.0369 29674.1492 16.3706 61.7667
TCL: Running FEP window   2: Lambda1 0.95   Lambda2 0.8999999999999999 [dLambda -0.050000000000000044]
TCL: Setting parameter firsttimestep to 0
TCL: Setting parameter alchLambda to 0.95
Info: NONBONDED TABLE R-SQUARED SPACING: 0.0625
Info: NONBONDED TABLE SIZE: 705 POINTS
TCL: Setting parameter alchLambda2 to 0.8999999999999999
Info: NONBONDED TABLE R-SQUARED SPACING: 0.0625
Info: NONBONDED TABLE SIZE: 705 POINTS
TCL: Running for 1500000 steps
ETITLE: TS BOND ANGLE DIHED IMPRP ELECT VDW BOUNDARY MISC KINETIC TOTAL TEMP POTENTIAL TOTALAVG TEMPAVG PRESSURE GPRESSURE VOLUME PRESSAVG GPRESSAVG
ENERGY: 0 2.4855 12.4725 6.2048 0.0000 -10579.7013 1527.1687 0.0000 0.0000 1764.0364 -7267.3334 305.3676 -9031.3698 -7267.3334 305.3676 1094.2138 1176.3426 29674.1492 1094.2138 1176.3426
ENERGY: 300000 1.8233 12.1382 5.1277 0.0000 -10524.4541 1393.9794 0.0000 0.0000 1704.3429 -7407.0426 295.0342 -9111.3856 -7326.0112 300.4793 -96.3591 -53.8851 29704.4890 197.4988 252.1182
ENERGY: 600000 2.3819 14.4329 4.1528 0.0000 -10426.2923 1354.2963 0.0000 0.0000 1721.3803 -7329.6480 297.9835 -9051.0283 -7298.7253 299.7127 -295.7256 -191.4564 29669.1981 219.3501 257.2370
ENERGY: 900000 1.3271 16.5315 5.3650 0.0000 -10486.2476 1372.3016 0.0000 0.0000 1756.1227 -7334.5997 303.9976 -9090.7223 -7305.2776 299.8998 -187.8103 -151.6030 29408.1972 205.8494 249.0352
ENERGY: 1200000 4.3747 15.9922 7.7504 0.0000 -10549.3358 1461.5529 0.0000 0.0000 1665.3403 -7394.3252 288.2825 -9059.6655 -7314.3631 299.2537 613.0500 648.8842 29479.4740 230.5832 273.9940
ENERGY: 1500000 1.4947 12.5476 6.2612 0.0000 -10376.2866 1362.3315 0.0000 0.0000 1694.6040 -7299.0475 293.3483 -8993.6516 -7319.1594 298.6188 -99.3733 -74.0639 29906.4711 109.7540 148.1689
TCL: Running FEP window   3: Lambda1 0.8999999999999999 Lambda2 0.8499999999999999 [dLambda -0.050000000000000044]
TCL: Setting parameter firsttimestep to 0
TCL: Setting parameter alchLambda to 0.8999999999999999
Info: NONBONDED TABLE R-SQUARED SPACING: 0.0625
Info: NONBONDED TABLE SIZE: 705 POINTS
TCL: Setting parameter alchLambda2 to 0.8499999999999999
Info: NONBONDED TABLE R-SQUARED SPACING: 0.0625
Info: NONBONDED TABLE SIZE: 705 POINTS
TCL: Running for 1500000 steps
ETITLE: TS BOND ANGLE DIHED IMPRP ELECT VDW BOUNDARY MISC KINETIC TOTAL TEMP POTENTIAL TOTALAVG TEMPAVG PRESSURE GPRESSURE VOLUME PRESSAVG GPRESSAVG
ENERGY: 0 1.4947 12.5476 6.2612 0.0000 -10375.0508 1362.1539 0.0000 0.0000 1693.7550 -7298.8384 293.2013 -8992.5934 -7298.8384 293.2013 -175.2696 -92.5189 29906.4711 -175.2696 -92.5189
ENERGY: 300000 1.5428 14.3748 3.6870 0.0000 -10532.3816 1511.6461 0.0000 0.0000 1779.2024 -7221.9285 307.9929 -9001.1309 -7265.6139 300.3777 1116.8729 1208.9421 29524.9804 -39.4657 41.2143
ENERGY: 600000 1.9726 14.3784 4.4932 0.0000 -10505.2712 1399.3251 0.0000 0.0000 1826.4996 -7258.6024 316.1804 -9085.1020 -7290.0947 301.5515 106.2561 153.7005 29606.5451 33.7623 111.8822
ENERGY: 900000 2.3215 11.7183 4.6610 0.0000 -10482.9331 1407.5479 0.0000 0.0000 1724.7473 -7331.9371 298.5663 -9056.6844 -7302.2873 300.3685 -9.3801 100.7458 29538.5771 -114.7680 -39.3797
ENERGY: 1200000 3.1707 12.8480 9.3313 0.0000 -10529.1399 1439.6253 0.0000 0.0000 1687.7155 -7376.4492 292.1558 -9064.1646 -7311.2587 298.8356 230.1930 231.9423 30259.5333 -57.3491 8.5192
ENERGY: 1500000 0.7648 11.4558 5.0954 0.0000 -10499.8016 1454.9475 0.0000 0.0000 1714.2019 -7313.3362 296.7409 -9027.5382 -7308.5068 299.2580 313.0324 327.5420 30511.2649 -23.7663 39.5429
TCL: Running FEP window   4: Lambda1 0.8499999999999999 Lambda2 0.7999999999999998 [dLambda -0.050000000000000044]
TCL: Setting parameter firsttimestep to 0
TCL: Setting parameter alchLambda to 0.8499999999999999
Info: NONBONDED TABLE R-SQUARED SPACING: 0.0625
Info: NONBONDED TABLE SIZE: 705 POINTS
TCL: Setting parameter alchLambda2 to 0.7999999999999998
Info: NONBONDED TABLE R-SQUARED SPACING: 0.0625
Info: NONBONDED TABLE SIZE: 705 POINTS
TCL: Running for 1500000 steps
ETITLE: TS BOND ANGLE DIHED IMPRP ELECT VDW BOUNDARY MISC KINETIC TOTAL TEMP POTENTIAL TOTALAVG TEMPAVG PRESSURE GPRESSURE VOLUME PRESSAVG GPRESSAVG
ENERGY: 0 0.7648 11.4558 5.0954 0.0000 -10498.5247 1453.8749 0.0000 0.0000 1713.3248 -7314.0090 296.5890 -9027.3338 -7314.0090 296.5890 218.8914 297.8114 30511.2649 218.8914 297.8114
ENERGY: 300000 2.1928 12.0261 7.2921 0.0000 -10446.6105 1407.3566 0.0000 0.0000 1743.2938 -7274.4490 301.7769 -9017.7428 -7267.8840 299.7982 137.4134 187.3079 29737.1190 -30.8993 33.3198
ENERGY: 600000 5.6550 11.8845 6.3501 0.0000 -10572.7736 1454.1739 0.0000 0.0000 1728.4862 -7366.2239 299.2136 -9094.7101 -7300.1194 300.2258 514.5318 588.7912 29220.7395 -53.9052 0.2716
ENERGY: 900000 1.6543 13.5951 4.9049 0.0000 -10436.8447 1324.7552 0.0000 0.0000 1771.9683 -7319.9669 306.7406 -9091.9353 -7314.0587 301.5463 -870.0024 -774.4880 30066.3258 -258.7424 -195.6132
ENERGY: 1200000 2.2445 14.7829 6.3445 0.0000 -10607.9604 1450.5445 0.0000 0.0000 1756.2225 -7377.8215 304.0149 -9134.0440 -7317.7494 302.1286 88.8769 228.4211 29611.4161 -182.8930 -113.7956
ENERGY: 1500000 2.4120 17.7453 6.2745 0.0000 -10447.4386 1337.5793 0.0000 0.0000 1716.7882 -7366.6394 297.1885 -9083.4275 -7320.2873 301.6251 -701.4773 -570.0131 29538.6293 -100.7750 -32.7043
TCL: Running FEP window   5: Lambda1 0.7999999999999998 Lambda2 0.7499999999999998 [dLambda -0.050000000000000044]
TCL: Setting parameter firsttimestep to 0
TCL: Setting parameter alchLambda to 0.7999999999999998
Info: NONBONDED TABLE R-SQUARED SPACING: 0.0625
Info: NONBONDED TABLE SIZE: 705 POINTS
TCL: Setting parameter alchLambda2 to 0.7499999999999998
Info: NONBONDED TABLE R-SQUARED SPACING: 0.0625
Info: NONBONDED TABLE SIZE: 705 POINTS
TCL: Running for 1500000 steps
ETITLE: TS BOND ANGLE DIHED IMPRP ELECT VDW BOUNDARY MISC KINETIC TOTAL TEMP POTENTIAL TOTALAVG TEMPAVG PRESSURE GPRESSURE VOLUME PRESSAVG GPRESSAVG
ENERGY: 0 2.4120 17.7453 6.2745 0.0000 -10446.5875 1337.0094 0.0000 0.0000 1715.9064 -7367.2399 297.0359 -9083.1463 -7367.2399 297.0359 -689.5804 -589.7817 29538.6293 -689.5804 -589.7817
ENERGY: 300000 2.0071 17.9917 6.2595 0.0000 -10492.5678 1399.6290 0.0000 0.0000 1711.8015 -7354.8790 296.3253 -9066.6804 -7336.3197 297.0107 -288.2584 -219.0407 30151.3159 -229.0040 -178.5631
ENERGY: 600000 5.3084 13.8952 6.0908 0.0000 -10451.5723 1407.4959 0.0000 0.0000 1721.7405 -7297.0414 298.0458 -9018.7819 -7322.0479 298.1633 -241.5844 -193.9914 30382.9865 -210.0430 -160.4403
ENERGY: 900000 3.4047 16.7410 4.8906 0.0000 -10406.0510 1326.3561 0.0000 0.0000 1680.0543 -7374.6044 290.8296 -9054.6586 -7336.7760 296.4408 -1009.3420 -943.1651 30346.7508 -291.5023 -232.2265
ENERGY: 1200000 2.4215 6.7590 4.6539 0.0000 -10442.3453 1355.5909 0.0000 0.0000 1771.7053 -7301.2147 306.6951 -9072.9200 -7330.7416 297.8485 -441.5668 -411.4240 29739.2210 -234.2846 -173.1791
ENERGY: 1500000 2.5825 12.2891 5.9495 0.0000 -10439.1624 1348.3728 0.0000 0.0000 1759.4973 -7310.4712 304.5818 -9069.9685 -7322.8085 298.3882 -395.7406 -276.4471 29729.4178 -306.8174 -242.4059
TCL: Running FEP window   6: Lambda1 0.7499999999999998 Lambda2 0.6999999999999997 [dLambda -0.050000000000000044]
TCL: Setting parameter firsttimestep to 0
TCL: Setting parameter alchLambda to 0.7499999999999998
Info: NONBONDED TABLE R-SQUARED SPACING: 0.0625
Info: NONBONDED TABLE SIZE: 705 POINTS
TCL: Setting parameter alchLambda2 to 0.6999999999999997
Info: NONBONDED TABLE R-SQUARED SPACING: 0.0625
Info: NONBONDED TABLE SIZE: 705 POINTS
TCL: Running for 1500000 steps
ETITLE: TS BOND ANGLE DIHED IMPRP ELECT VDW BOUNDARY MISC KINETIC TOTAL TEMP POTENTIAL TOTALAVG TEMPAVG PRESSURE GPRESSURE VOLUME PRESSAVG GPRESSAVG
ENERGY: 0 2.5825 12.2891 5.9495 0.0000 -10437.9778 1348.0262 0.0000 0.0000 1758.6376 -7310.4928 304.4330 -9069.1305 -7310.4928 304.4330 -379.3467 -293.0602 29729.4178 -379.3467 -293.0602
ENERGY: 300000 2.9007 9.6893 4.1278 0.0000 -10460.0537 1410.8971 0.0000 0.0000 1801.8062 -7230.6326 311.9058 -9032.4388 -7309.6284 305.3273 65.2769 102.4573 29913.7432 151.4931 195.1665
ENERGY: 600000 2.0863 13.4105 4.1171 0.0000 -10434.2479 1387.5176 0.0000 0.0000 1741.1600 -7285.9563 301.4075 -9027.1163 -7305.2269 300.9501 -167.7040 -101.9333 30153.6598 -13.5390 47.4942
ENERGY: 900000 4.5188 18.8249 6.0492 0.0000 -10367.4482 1378.5946 0.0000 0.0000 1751.3187 -7208.1419 303.1660 -8959.4606 -7294.0446 299.7906 -376.5923 -253.8470 30320.4578 -144.9366 -74.2816
ENERGY: 1200000 2.9309 11.5172 5.0813 0.0000 -10453.2608 1407.3468 0.0000 0.0000 1731.9302 -7294.4544 299.8097 -9026.3847 -7285.6092 300.2548 161.8837 225.8430 30040.8202 3.3572 72.7738
ENERGY: 1500000 5.0594 7.4047 9.0634 0.0000 -10387.0797 1388.8098 0.0000 0.0000 1699.9648 -7276.7775 294.2763 -8976.7423 -7282.9239 300.0314 -251.8898 -180.8233 30196.1214 20.7527 89.5632
TCL: Running FEP window   7: Lambda1 0.6999999999999997 Lambda2 0.6499999999999997 [dLambda -0.050000000000000044]
TCL: Setting parameter firsttimestep to 0
TCL: Setting parameter alchLambda to 0.6999999999999997
Info: NONBONDED TABLE R-SQUARED SPACING: 0.0625
Info: NONBONDED TABLE SIZE: 705 POINTS
TCL: Setting parameter alchLambda2 to 0.6499999999999997
Info: NONBONDED TABLE R-SQUARED SPACING: 0.0625
Info: NONBONDED TABLE SIZE: 705 POINTS
TCL: Running for 1500000 steps
ETITLE: TS BOND ANGLE DIHED IMPRP ELECT VDW BOUNDARY MISC KINETIC TOTAL TEMP POTENTIAL TOTALAVG TEMPAVG PRESSURE GPRESSURE VOLUME PRESSAVG GPRESSAVG
ENERGY: 0 5.0594 7.4047 9.0634 0.0000 -10386.1958 1389.5166 0.0000 0.0000 1699.0632 -7276.0885 294.1202 -8975.1517 -7276.0885 294.1202 -261.8506 -181.2213 30196.1214 -261.8506 -181.2213
ENERGY: 300000 3.0526 14.4826 6.0656 0.0000 -10366.1680 1271.6431 0.0000 0.0000 1728.4856 -7342.4386 299.2135 -9070.9241 -7334.8557 296.9903 -999.5719 -975.9681 29516.9030 -366.7776 -315.9565
ENERGY: 600000 1.0138 10.7181 6.2170 0.0000 -10471.5423 1436.9216 0.0000 0.0000 1742.2400 -7274.4318 301.5944 -9016.6717 -7321.9319 298.8669 438.4928 493.5757 29777.3882 -5.8487 46.1278
ENERGY: 900000 1.7011 9.1642 5.4382 0.0000 -10476.1320 1415.4214 0.0000 0.0000 1742.8487 -7301.5584 301.6998 -9044.4071 -7308.5109 300.4229 162.9974 234.9651 29650.7961 -89.1537 -34.2087
ENERGY: 1200000 3.1217 14.6406 7.3261 0.0000 -10354.7522 1352.1366 0.0000 0.0000 1705.0825 -7272.4448 295.1622 -8977.5273 -7301.3732 299.6084 27.5994 80.2594 29651.1946 -1.8648 50.9994
ENERGY: 1500000 2.4190 16.7128 4.7757 0.0000 -10427.0970 1380.7191 0.0000 0.0000 1789.6859 -7232.7846 309.8077 -9022.4705 -7289.8969 299.9360 16.0590 72.3771 29782.4539 -8.6965 39.3396
TCL: Running FEP window   8: Lambda1 0.6499999999999997 Lambda2 0.5999999999999996 [dLambda -0.050000000000000044]
TCL: Setting parameter firsttimestep to 0
TCL: Setting parameter alchLambda to 0.6499999999999997
Info: NONBONDED TABLE R-SQUARED SPACING: 0.0625
Info: NONBONDED TABLE SIZE: 705 POINTS
TCL: Setting parameter alchLambda2 to 0.5999999999999996
Info: NONBONDED TABLE R-SQUARED SPACING: 0.0625
Info: NONBONDED TABLE SIZE: 705 POINTS
TCL: Running for 1500000 steps
ETITLE: TS BOND ANGLE DIHED IMPRP ELECT VDW BOUNDARY MISC KINETIC TOTAL TEMP POTENTIAL TOTALAVG TEMPAVG PRESSURE GPRESSURE VOLUME PRESSAVG GPRESSAVG
ENERGY: 0 2.4190 16.7128 4.7757 0.0000 -10426.9758 1381.0681 0.0000 0.0000 1788.8286 -7233.1717 309.6593 -9022.0003 -7233.1717 309.6593 -18.7013 64.8680 29782.4539 -18.7013 64.8680
ENERGY: 300000 1.0911 11.9996 5.6831 0.0000 -10519.9485 1460.2556 0.0000 0.0000 1743.9967 -7296.9224 301.8985 -9040.9191 -7281.4049 303.3603 344.7696 429.1058 30229.9601 234.7721 302.4113
ENERGY: 600000 4.0850 15.4920 6.2355 0.0000 -10373.7268 1367.4851 0.0000 0.0000 1762.2167 -7218.2123 305.0526 -8980.4291 -7285.6702 303.1336 -357.9169 -225.1895 30218.5198 0.4392 70.4303
ENERGY: 900000 1.0108 16.6794 5.3909 0.0000 -10475.2765 1370.7242 0.0000 0.0000 1731.4218 -7350.0495 299.7217 -9081.4713 -7290.3045 302.7807 -520.4868 -512.0675 30086.8744 -98.9099 -46.7824
ENERGY: 1200000 3.7707 11.2885 4.8356 0.0000 -10400.4489 1370.1601 0.0000 0.0000 1748.0509 -7262.3431 302.6004 -9010.3940 -7284.0268 303.0369 71.4064 85.0011 29443.2414 -88.6862 -36.1907
ENERGY: 1500000 4.3805 13.5308 8.0472 0.0000 -10415.2876 1403.8706 0.0000 0.0000 1702.1815 -7283.2772 294.6600 -8985.4586 -7283.6711 302.1882 -47.3932 74.4246 30024.9088 -120.2574 -62.0049
TCL: Running FEP window   9: Lambda1 0.5999999999999996 Lambda2 0.5499999999999996 [dLambda -0.050000000000000044]
TCL: Setting parameter firsttimestep to 0
TCL: Setting parameter alchLambda to 0.5999999999999996
Info: NONBONDED TABLE R-SQUARED SPACING: 0.0625
Info: NONBONDED TABLE SIZE: 705 POINTS
TCL: Setting parameter alchLambda2 to 0.5499999999999996
Info: NONBONDED TABLE R-SQUARED SPACING: 0.0625
Info: NONBONDED TABLE SIZE: 705 POINTS
TCL: Running for 1500000 steps
ETITLE: TS BOND ANGLE DIHED IMPRP ELECT VDW BOUNDARY MISC KINETIC TOTAL TEMP POTENTIAL TOTALAVG TEMPAVG PRESSURE GPRESSURE VOLUME PRESSAVG GPRESSAVG
ENERGY: 0 4.3804 13.5308 8.0472 0.0000 -10413.8300 1404.1985 0.0000 0.0000 1701.3367 -7282.3365 294.5138 -8983.6732 -7282.3365 294.5138 2.9115 66.6491 30024.9088 2.9115 66.6491
ENERGY: 300000 1.5081 16.1604 4.7286 0.0000 -10457.8933 1432.0211 0.0000 0.0000 1766.9673 -7236.5078 305.8749 -9003.4751 -7292.6987 300.8644 524.6845 572.2992 29781.4813 215.9431 279.7719
ENERGY: 600000 2.0552 13.7089 6.0226 0.0000 -10401.2015 1378.1309 0.0000 0.0000 1763.1735 -7238.1105 305.2182 -9001.2839 -7282.0765 300.0529 -119.0077 -88.9165 29972.9014 -2.8546 55.6236
ENERGY: 900000 5.6604 11.7036 5.8702 0.0000 -10584.7814 1480.0009 0.0000 0.0000 1824.2261 -7257.3202 315.7868 -9081.5463 -7284.0196 301.1436 357.7979 435.8536 29551.2608 61.3656 125.2845
ENERGY: 1200000 4.2440 16.6484 6.2641 0.0000 -10463.1166 1377.5741 0.0000 0.0000 1761.4560 -7296.9299 304.9209 -9058.3860 -7291.1852 301.1139 -116.9453 -75.5727 29555.5146 -66.1307 1.8740
ENERGY: 1500000 1.9496 10.7254 5.5362 0.0000 -10436.5558 1371.3100 0.0000 0.0000 1738.9544 -7308.0802 301.0257 -9047.0346 -7290.1201 301.2339 -79.0076 -53.1327 29554.4507 -85.2380 -18.0067
TCL: Running FEP window  10: Lambda1 0.5499999999999996 Lambda2 0.4999999999999996 [dLambda -0.04999999999999999]
TCL: Setting parameter firsttimestep to 0
TCL: Setting parameter alchLambda to 0.5499999999999996
Info: NONBONDED TABLE R-SQUARED SPACING: 0.0625
Info: NONBONDED TABLE SIZE: 705 POINTS
TCL: Setting parameter alchLambda2 to 0.4999999999999996
Info: NONBONDED TABLE R-SQUARED SPACING: 0.0625
Info: NONBONDED TABLE SIZE: 705 POINTS
TCL: Running for 1500000 steps
ETITLE: TS BOND ANGLE DIHED IMPRP ELECT VDW BOUNDARY MISC KINETIC TOTAL TEMP POTENTIAL TOTALAVG TEMPAVG PRESSURE GPRESSURE VOLUME PRESSAVG GPRESSAVG
ENERGY: 0 1.9496 10.7254 5.5362 0.0000 -10435.9954 1371.6700 0.0000 0.0000 1738.0688 -7308.0454 300.8724 -9046.1142 -7308.0454 300.8724 -154.9572 -60.4194 29554.4507 -154.9572 -60.4194
ENERGY: 300000 2.3160 11.0155 6.8463 0.0000 -10472.3595 1411.9241 0.0000 0.0000 1749.4358 -7290.8219 302.8401 -9040.2577 -7261.0278 302.3187 354.6100 386.1084 29453.2836 -12.0971 69.5742
ENERGY: 600000 6.9994 12.0177 6.0065 0.0000 -10469.9075 1410.1501 0.0000 0.0000 1732.1956 -7302.5381 299.8557 -9034.7337 -7260.4282 304.1422 -326.2457 -205.2979 30225.5440 -218.7090 -122.3134
ENERGY: 900000 2.8095 12.4099 4.4195 0.0000 -10428.4143 1394.1180 0.0000 0.0000 1795.7141 -7218.9433 310.8512 -9014.6573 -7263.0968 304.0020 -274.3760 -173.1502 30084.7054 -233.4650 -143.8227
ENERGY: 1200000 1.6638 9.7885 4.8624 0.0000 -10400.6482 1374.8701 0.0000 0.0000 1751.3575 -7258.1058 303.1727 -9009.4633 -7273.1804 302.1889 25.0938 88.4338 29557.0375 -182.0670 -91.0869
ENERGY: 1500000 2.6621 20.3203 6.7926 0.0000 -10477.3330 1376.1616 0.0000 0.0000 1780.1089 -7291.2875 308.1498 -9071.3964 -7278.7527 302.2814 -382.2263 -259.8255 29369.9260 -210.6110 -121.7633
TCL: Running FEP window  11: Lambda1 0.4999999999999996 Lambda2 0.4499999999999996 [dLambda -0.04999999999999999]
TCL: Setting parameter firsttimestep to 0
TCL: Setting parameter alchLambda to 0.4999999999999996
Info: NONBONDED TABLE R-SQUARED SPACING: 0.0625
Info: NONBONDED TABLE SIZE: 705 POINTS
TCL: Setting parameter alchLambda2 to 0.4499999999999996
Info: NONBONDED TABLE R-SQUARED SPACING: 0.0625
Info: NONBONDED TABLE SIZE: 705 POINTS
TCL: Running for 1500000 steps
ETITLE: TS BOND ANGLE DIHED IMPRP ELECT VDW BOUNDARY MISC KINETIC TOTAL TEMP POTENTIAL TOTALAVG TEMPAVG PRESSURE GPRESSURE VOLUME PRESSAVG GPRESSAVG
ENERGY: 0 2.6621 20.3203 6.7926 0.0000 -10477.1814 1375.3539 0.0000 0.0000 1779.2693 -7292.7831 308.0045 -9072.0524 -7292.7831 308.0045 -363.2000 -277.8384 29369.9260 -363.2000 -277.8384
ENERGY: 300000 2.7526 9.6476 7.4374 0.0000 -10436.9682 1378.6101 0.0000 0.0000 1692.2510 -7346.2695 292.9410 -9038.5205 -7311.7304 300.0508 -133.4466 -54.8788 29458.9579 -53.4334 38.4160
ENERGY: 600000 0.9517 11.2539 5.2242 0.0000 -10377.1479 1378.2113 0.0000 0.0000 1659.0325 -7322.4742 287.1906 -8981.5067 -7310.8639 299.4914 -186.5487 -151.6047 30078.0042 24.7310 108.4713
ENERGY: 900000 4.2559 9.4568 7.0401 0.0000 -10476.0133 1391.2192 0.0000 0.0000 1785.9547 -7278.0866 309.1618 -9064.0413 -7305.5517 300.5968 -189.7087 -96.4412 29495.2413 -121.7523 -37.2968
ENERGY: 1200000 2.9789 11.4004 4.9550 0.0000 -10591.5370 1506.1584 0.0000 0.0000 1753.5787 -7312.4656 303.5572 -9066.0443 -7306.4079 301.2195 609.3091 584.3166 29839.5107 -44.1605 25.7720
ENERGY: 1500000 1.5367 14.9660 4.9366 0.0000 -10466.9903 1355.8290 0.0000 0.0000 1769.4040 -7320.3180 306.2967 -9089.7220 -7297.6682 302.4881 -581.2195 -567.6723 29938.4240 -102.6454 -39.1627
TCL: Running FEP window  12: Lambda1 0.4499999999999996 Lambda2 0.39999999999999963 [dLambda -0.04999999999999999]
TCL: Setting parameter firsttimestep to 0
TCL: Setting parameter alchLambda to 0.4499999999999996
Info: NONBONDED TABLE R-SQUARED SPACING: 0.0625
Info: NONBONDED TABLE SIZE: 705 POINTS
TCL: Setting parameter alchLambda2 to 0.39999999999999963
Info: NONBONDED TABLE R-SQUARED SPACING: 0.0625
Info: NONBONDED TABLE SIZE: 705 POINTS
TCL: Running for 1500000 steps
ETITLE: TS BOND ANGLE DIHED IMPRP ELECT VDW BOUNDARY MISC KINETIC TOTAL TEMP POTENTIAL TOTALAVG TEMPAVG PRESSURE GPRESSURE VOLUME PRESSAVG GPRESSAVG
ENERGY: 0 1.5367 14.9660 4.9366 0.0000 -10466.9902 1356.3026 0.0000 0.0000 1768.5587 -7320.6896 306.1504 -9089.2483 -7320.6896 306.1504 -656.8604 -570.8597 29938.4240 -656.8604 -570.8597
ENERGY: 300000 3.3323 12.7061 5.5506 0.0000 -10552.8822 1503.7440 0.0000 0.0000 1721.8049 -7305.7442 298.0570 -9027.5491 -7282.2719 301.5424 862.1592 919.7797 29514.2943 149.8439 219.8186
ENERGY: 600000 0.9916 11.3446 5.0904 0.0000 -10600.1212 1478.3393 0.0000 0.0000 1776.9353 -7327.4200 307.6005 -9104.3553 -7295.6645 303.3579 319.9994 334.0681 29894.1194 285.8619 349.2710
ENERGY: 900000 1.9391 17.7285 4.3355 0.0000 -10575.9514 1483.4798 0.0000 0.0000 1783.0058 -7285.4626 308.6513 -9068.4684 -7283.6774 302.7640 771.4869 842.2417 29317.0849 117.2609 181.6793
ENERGY: 1200000 1.7339 16.8917 4.9720 0.0000 -10486.3967 1397.1556 0.0000 0.0000 1726.4075 -7339.2361 298.8537 -9065.6435 -7282.7027 302.1414 35.5563 116.3240 29548.9061 134.7151 201.5422
ENERGY: 1500000 1.8306 9.0786 6.3297 0.0000 -10477.1785 1411.1975 0.0000 0.0000 1706.2098 -7342.5324 295.3573 -9048.7421 -7284.8628 301.4844 89.9192 199.8896 29454.0903 126.9265 199.9294
TCL: Running FEP window  13: Lambda1 0.39999999999999963 Lambda2 0.34999999999999964 [dLambda -0.04999999999999999]
TCL: Setting parameter firsttimestep to 0
TCL: Setting parameter alchLambda to 0.39999999999999963
Info: NONBONDED TABLE R-SQUARED SPACING: 0.0625
Info: NONBONDED TABLE SIZE: 705 POINTS
TCL: Setting parameter alchLambda2 to 0.34999999999999964
Info: NONBONDED TABLE R-SQUARED SPACING: 0.0625
Info: NONBONDED TABLE SIZE: 705 POINTS
TCL: Running for 1500000 steps
ETITLE: TS BOND ANGLE DIHED IMPRP ELECT VDW BOUNDARY MISC KINETIC TOTAL TEMP POTENTIAL TOTALAVG TEMPAVG PRESSURE GPRESSURE VOLUME PRESSAVG GPRESSAVG
ENERGY: 0 1.8306 9.0786 6.3297 0.0000 -10477.1776 1411.5585 0.0000 0.0000 1705.3238 -7343.0564 295.2040 -9048.3802 -7343.0564 295.2040 105.4284 192.3317 29454.0903 105.4284 192.3317
ENERGY: 300000 4.5714 10.2154 4.4139 0.0000 -10273.0168 1306.7517 0.0000 0.0000 1709.8508 -7237.2137 295.9876 -8947.0645 -7281.5139 299.1187 -572.3683 -507.1378 30074.9024 -122.6253 -50.5794
ENERGY: 600000 2.3308 16.8564 4.5701 0.0000 -10576.5152 1495.9001 0.0000 0.0000 1775.4289 -7281.4289 307.3397 -9056.8578 -7284.3130 300.3282 600.6707 685.3669 29585.1683 -5.7821 58.9612
ENERGY: 900000 1.2787 13.0930 6.0381 0.0000 -10408.9026 1322.2678 0.0000 0.0000 1754.5758 -7311.6492 303.7299 -9066.2250 -7283.5454 300.7480 -736.5901 -694.7653 30037.9845 -199.9147 -139.4689
ENERGY: 1200000 2.0094 18.7227 6.8507 0.0000 -10707.5384 1541.4035 0.0000 0.0000 1732.1016 -7406.4504 299.8394 -9138.5521 -7295.8231 300.8424 1110.5521 1112.6979 29010.9319 -53.7740 6.3830
ENERGY: 1500000 2.9559 13.3551 5.5838 0.0000 -10474.0858 1368.9255 0.0000 0.0000 1679.0844 -7404.1810 290.6618 -9083.2654 -7307.8306 299.7141 -657.6108 -620.8445 29944.0505 -153.7841 -96.3253
TCL: Running FEP window  14: Lambda1 0.34999999999999964 Lambda2 0.29999999999999966 [dLambda -0.04999999999999999]
TCL: Setting parameter firsttimestep to 0
TCL: Setting parameter alchLambda to 0.34999999999999964
Info: NONBONDED TABLE R-SQUARED SPACING: 0.0625
Info: NONBONDED TABLE SIZE: 705 POINTS
TCL: Setting parameter alchLambda2 to 0.29999999999999966
Info: NONBONDED TABLE R-SQUARED SPACING: 0.0625
Info: NONBONDED TABLE SIZE: 705 POINTS
TCL: Running for 1500000 steps
ETITLE: TS BOND ANGLE DIHED IMPRP ELECT VDW BOUNDARY MISC KINETIC TOTAL TEMP POTENTIAL TOTALAVG TEMPAVG PRESSURE GPRESSURE VOLUME PRESSAVG GPRESSAVG
ENERGY: 0 2.9559 13.3551 5.5838 0.0000 -10474.0871 1369.0868 0.0000 0.0000 1678.2290 -7404.8764 290.5137 -9083.1054 -7404.8764 290.5137 -717.1495 -626.4415 29944.0505 -717.1495 -626.4415
ENERGY: 300000 2.0917 14.9861 4.9833 0.0000 -10547.4806 1432.7892 0.0000 0.0000 1782.4888 -7310.1415 308.5618 -9092.6303 -7336.1690 299.2778 130.0166 166.6202 29800.5342 -95.9236 -5.8734
ENERGY: 600000 6.1830 12.2269 5.2698 0.0000 -10359.1730 1418.0560 0.0000 0.0000 1748.4457 -7168.9915 302.6687 -8917.4372 -7336.3517 299.9660 216.3834 202.1258 30254.3624 -112.8455 -48.7762
ENERGY: 900000 2.7293 14.6974 6.6233 0.0000 -10526.3870 1444.5964 0.0000 0.0000 1734.1646 -7323.5761 300.1965 -9057.7407 -7318.4138 299.4700 299.4224 317.9045 29439.8505 -100.8656 -49.8923
ENERGY: 1200000 2.4429 17.1501 5.2563 0.0000 -10520.6580 1412.1758 0.0000 0.0000 1743.6034 -7340.0295 301.8305 -9083.6329 -7309.8890 299.9377 118.1127 159.6742 29442.1150 -115.7464 -53.3703
ENERGY: 1500000 6.2140 15.9537 4.9390 0.0000 -10470.4357 1390.5672 0.0000 0.0000 1666.2228 -7386.5389 288.4353 -9052.7617 -7322.7342 298.3954 -692.8131 -658.4917 30303.4468 -138.3949 -75.1970
TCL: Running FEP window  15: Lambda1 0.29999999999999966 Lambda2 0.24999999999999967 [dLambda -0.04999999999999999]
TCL: Setting parameter firsttimestep to 0
TCL: Setting parameter alchLambda to 0.29999999999999966
Info: NONBONDED TABLE R-SQUARED SPACING: 0.0625
Info: NONBONDED TABLE SIZE: 705 POINTS
TCL: Setting parameter alchLambda2 to 0.24999999999999967
Info: NONBONDED TABLE R-SQUARED SPACING: 0.0625
Info: NONBONDED TABLE SIZE: 705 POINTS
TCL: Running for 1500000 steps
ETITLE: TS BOND ANGLE DIHED IMPRP ELECT VDW BOUNDARY MISC KINETIC TOTAL TEMP POTENTIAL TOTALAVG TEMPAVG PRESSURE GPRESSURE VOLUME PRESSAVG GPRESSAVG
ENERGY: 0 6.2140 15.9537 4.9390 0.0000 -10470.4356 1390.3014 0.0000 0.0000 1665.3969 -7387.6306 288.2923 -9053.0275 -7387.6306 288.2923 -728.6399 -669.2673 30303.4468 -728.6399 -669.2673
ENERGY: 300000 1.2616 10.5363 8.4791 0.0000 -10464.3335 1401.7910 0.0000 0.0000 1712.6531 -7329.6124 296.4727 -9042.2655 -7330.6523 294.2402 -183.2306 -149.5825 29877.9299 -420.9781 -377.2542
ENERGY: 600000 2.2744 13.6695 6.0356 0.0000 -10426.6236 1399.2063 0.0000 0.0000 1757.5389 -7247.8990 304.2428 -9005.4379 -7313.4637 296.1343 -14.4197 39.0540 30097.5570 -92.7880 -48.8257
ENERGY: 900000 3.6542 13.9981 3.8369 0.0000 -10406.2796 1372.2810 0.0000 0.0000 1765.9958 -7246.5135 305.7067 -9012.5093 -7302.2051 298.3339 -214.6930 -139.9487 29521.0603 65.5984 113.9939
ENERGY: 1200000 1.9772 17.0845 5.0108 0.0000 -10348.1814 1310.7022 0.0000 0.0000 1719.7489 -7293.6579 297.7011 -9013.4067 -7303.0266 298.8976 -488.9020 -440.2271 29693.8878 -24.7110 29.9349
ENERGY: 1500000 5.5051 20.0639 6.7465 0.0000 -10362.9780 1366.6474 0.0000 0.0000 1731.1654 -7232.8498 299.6773 -8964.0152 -7297.4554 298.9809 37.0787 75.6800 29386.3480 -72.4884 -19.7704
TCL: Running FEP window  16: Lambda1 0.24999999999999967 Lambda2 0.19999999999999968 [dLambda -0.04999999999999999]
TCL: Setting parameter firsttimestep to 0
TCL: Setting parameter alchLambda to 0.24999999999999967
Info: NONBONDED TABLE R-SQUARED SPACING: 0.0625
Info: NONBONDED TABLE SIZE: 705 POINTS
TCL: Setting parameter alchLambda2 to 0.19999999999999968
Info: NONBONDED TABLE R-SQUARED SPACING: 0.0625
Info: NONBONDED TABLE SIZE: 705 POINTS
TCL: Running for 1500000 steps
ETITLE: TS BOND ANGLE DIHED IMPRP ELECT VDW BOUNDARY MISC KINETIC TOTAL TEMP POTENTIAL TOTALAVG TEMPAVG PRESSURE GPRESSURE VOLUME PRESSAVG GPRESSAVG
ENERGY: 0 5.5051 20.0639 6.7465 0.0000 -10362.9769 1366.8969 0.0000 0.0000 1730.2931 -7233.4715 299.5263 -8963.7646 -7233.4715 299.5263 -21.9124 70.3534 29386.3480 -21.9124 70.3534
ENERGY: 300000 3.5550 22.9651 8.5298 0.0000 -10370.1797 1413.4170 0.0000 0.0000 1789.7227 -7131.9901 309.8140 -8921.7128 -7255.0428 301.3765 315.7251 413.6051 29904.3780 136.4057 211.7013
ENERGY: 600000 2.5524 9.5073 4.4793 0.0000 -10316.8109 1365.4961 0.0000 0.0000 1700.7612 -7234.0146 294.4142 -8934.7758 -7263.9812 298.7636 5.9192 -13.6691 29829.5007 186.5521 241.4049
ENERGY: 900000 3.8246 10.7584 6.5665 0.0000 -10394.3843 1311.8123 0.0000 0.0000 1723.0011 -7338.4214 298.2640 -9061.4225 -7273.9107 298.9383 -554.0905 -502.3313 29475.4829 25.6239 81.5720
ENERGY: 1200000 5.0293 12.7264 5.4252 0.0000 -10546.2945 1456.7594 0.0000 0.0000 1797.4554 -7268.8988 311.1526 -9066.3542 -7276.0878 299.8193 179.5792 241.7525 29479.0173 44.1593 93.3321
ENERGY: 1500000 7.3151 14.4931 5.9314 0.0000 -10437.4576 1376.2434 0.0000 0.0000 1706.0533 -7327.4213 295.3303 -9033.4747 -7279.2572 299.7359 -346.6233 -319.6479 29450.6314 -46.0882 -0.4667
TCL: Running FEP window  17: Lambda1 0.19999999999999968 Lambda2 0.1499999999999997 [dLambda -0.04999999999999999]
TCL: Setting parameter firsttimestep to 0
TCL: Setting parameter alchLambda to 0.19999999999999968
Info: NONBONDED TABLE R-SQUARED SPACING: 0.0625
Info: NONBONDED TABLE SIZE: 705 POINTS
TCL: Setting parameter alchLambda2 to 0.1499999999999997
Info: NONBONDED TABLE R-SQUARED SPACING: 0.0625
Info: NONBONDED TABLE SIZE: 705 POINTS
TCL: Running for 1500000 steps
ETITLE: TS BOND ANGLE DIHED IMPRP ELECT VDW BOUNDARY MISC KINETIC TOTAL TEMP POTENTIAL TOTALAVG TEMPAVG PRESSURE GPRESSURE VOLUME PRESSAVG GPRESSAVG
ENERGY: 0 7.3151 14.4931 5.9314 0.0000 -10437.4583 1376.0001 0.0000 0.0000 1705.2196 -7328.4990 295.1859 -9033.7186 -7328.4990 295.1859 -415.6821 -330.1967 29450.6314 -415.6821 -330.1967
ENERGY: 300000 5.0671 14.2533 7.3863 0.0000 -10407.6105 1371.3464 0.0000 0.0000 1767.9825 -7241.5748 306.0507 -9009.5573 -7306.6039 300.6282 -280.1282 -177.7152 29684.7932 -8.3378 62.3071
ENERGY: 600000 3.6441 17.4210 4.4341 0.0000 -10293.2680 1325.3522 0.0000 0.0000 1760.0884 -7182.3282 304.6841 -8942.4166 -7291.8482 300.5045 -738.6067 -631.2047 30335.6131 -205.4743 -136.6128
ENERGY: 900000 3.8010 17.1262 3.7543 0.0000 -10496.0954 1417.7857 0.0000 0.0000 1715.3619 -7338.2664 296.9416 -9053.6282 -7290.4340 299.7356 197.5248 242.5464 29444.8415 -11.2171 52.9792
ENERGY: 1200000 2.2999 13.3478 5.3366 0.0000 -10398.5909 1392.4641 0.0000 0.0000 1672.0283 -7313.1142 289.4403 -8985.1425 -7286.6697 299.7490 -385.5222 -266.3833 30111.8919 -37.0486 36.4697
ENERGY: 1500000 4.0654 13.0819 5.6711 0.0000 -10630.1569 1472.9943 0.0000 0.0000 1752.5288 -7381.8153 303.3755 -9134.3442 -7295.1724 299.7721 346.1880 406.9690 29473.4973 -33.2877 33.6989
TCL: Running FEP window  18: Lambda1 0.1499999999999997 Lambda2 0.09999999999999969 [dLambda -0.05 ]
TCL: Setting parameter firsttimestep to 0
TCL: Setting parameter alchLambda to 0.1499999999999997
Info: NONBONDED TABLE R-SQUARED SPACING: 0.0625
Info: NONBONDED TABLE SIZE: 705 POINTS
TCL: Setting parameter alchLambda2 to 0.09999999999999969
Info: NONBONDED TABLE R-SQUARED SPACING: 0.0625
Info: NONBONDED TABLE SIZE: 705 POINTS
TCL: Running for 1500000 steps
ETITLE: TS BOND ANGLE DIHED IMPRP ELECT VDW BOUNDARY MISC KINETIC TOTAL TEMP POTENTIAL TOTALAVG TEMPAVG PRESSURE GPRESSURE VOLUME PRESSAVG GPRESSAVG
ENERGY: 0 4.0654 13.0819 5.6711 0.0000 -10630.1575 1473.3375 0.0000 0.0000 1751.6412 -7382.3604 303.2219 -9134.0016 -7382.3604 303.2219 328.1840 404.0497 29473.4973 328.1840 404.0497
ENERGY: 300000 4.8138 9.7981 5.7459 0.0000 -10392.0609 1351.8557 0.0000 0.0000 1768.4498 -7251.3976 306.1316 -9019.8474 -7301.1377 301.4438 -603.2596 -557.8884 29680.8453 -106.4239 -25.4873
ENERGY: 600000 1.8537 13.4823 6.4209 0.0000 -10528.9198 1429.3873 0.0000 0.0000 1689.4495 -7388.3262 292.4560 -9077.7757 -7306.6167 301.1224 134.0871 163.3866 29434.2700 -47.1236 16.9367
ENERGY: 900000 3.4245 8.3691 4.7652 0.0000 -10492.5534 1461.2066 0.0000 0.0000 1759.6361 -7255.1518 304.6058 -9014.7880 -7289.9737 301.4267 332.7972 352.6232 29789.9658 -27.4007 37.0744
ENERGY: 1200000 5.2058 9.0581 6.0666 0.0000 -10449.6343 1467.2271 0.0000 0.0000 1736.8158 -7225.2610 300.6555 -8962.0767 -7284.2966 301.0102 245.6752 406.2683 29892.7748 67.4258 141.5291
ENERGY: 1500000 6.0360 14.8274 5.4957 0.0000 -10480.5398 1364.4962 0.0000 0.0000 1686.3546 -7403.3299 291.9203 -9089.6845 -7294.0709 300.3543 -806.9328 -779.0527 29909.5032 -53.9467 10.1898
TCL: Running FEP window  19: Lambda1 0.09999999999999969 Lambda2 0.049999999999999684 [dLambda -0.05 ]
TCL: Setting parameter firsttimestep to 0
TCL: Setting parameter alchLambda to 0.09999999999999969
Info: NONBONDED TABLE R-SQUARED SPACING: 0.0625
Info: NONBONDED TABLE SIZE: 705 POINTS
TCL: Setting parameter alchLambda2 to 0.049999999999999684
Info: NONBONDED TABLE R-SQUARED SPACING: 0.0625
Info: NONBONDED TABLE SIZE: 705 POINTS
TCL: Running for 1500000 steps
ETITLE: TS BOND ANGLE DIHED IMPRP ELECT VDW BOUNDARY MISC KINETIC TOTAL TEMP POTENTIAL TOTALAVG TEMPAVG PRESSURE GPRESSURE VOLUME PRESSAVG GPRESSAVG
ENERGY: 0 6.0360 14.8274 5.4957 0.0000 -10480.5409 1363.6700 0.0000 0.0000 1685.5381 -7404.9737 291.7789 -9090.5118 -7404.9737 291.7789 -870.8157 -788.9414 29909.5032 -870.8157 -788.9414
ENERGY: 300000 1.9876 13.1439 6.2462 0.0000 -10480.4174 1391.2316 0.0000 0.0000 1735.9842 -7331.8239 300.5115 -9067.8081 -7325.6094 302.8978 71.6918 93.6327 29243.3215 -167.2591 -116.7257
ENERGY: 600000 2.6409 11.7092 5.8025 0.0000 -10481.4629 1429.5220 0.0000 0.0000 1691.9181 -7339.8702 292.8833 -9031.7883 -7312.4267 301.1162 412.7773 412.3294 29254.0332 -13.0413 15.6721
ENERGY: 900000 1.9460 11.3754 6.5628 0.0000 -10511.6527 1435.1262 0.0000 0.0000 1746.2903 -7310.3518 302.2956 -9056.6421 -7314.8578 301.7405 268.0168 260.4130 29428.8388 -126.7623 -93.2314
ENERGY: 1200000 0.7622 11.0488 4.9284 0.0000 -10374.0169 1332.0345 0.0000 0.0000 1709.3907 -7315.8524 295.9080 -9025.2430 -7305.0266 301.5435 -562.0589 -407.2018 29512.1265 1.5513 43.2378
ENERGY: 1500000 1.8697 14.2443 5.7836 0.0000 -10576.6756 1451.8575 0.0000 0.0000 1665.4360 -7437.4847 288.2991 -9102.9206 -7308.7888 300.6127 337.8995 360.8527 29367.0903 -2.3630 49.3875
TCL: Running FEP window  20: Lambda1 0.049999999999999684 Lambda2 0.0    [dLambda -0.049999999999999684]
TCL: Setting parameter firsttimestep to 0
TCL: Setting parameter alchLambda to 0.049999999999999684
Info: NONBONDED TABLE R-SQUARED SPACING: 0.0625
Info: NONBONDED TABLE SIZE: 705 POINTS
TCL: Setting parameter alchLambda2 to 0.0
Info: NONBONDED TABLE R-SQUARED SPACING: 0.0625
Info: NONBONDED TABLE SIZE: 705 POINTS
TCL: Running for 1500000 steps
ETITLE: TS BOND ANGLE DIHED IMPRP ELECT VDW BOUNDARY MISC KINETIC TOTAL TEMP POTENTIAL TOTALAVG TEMPAVG PRESSURE GPRESSURE VOLUME PRESSAVG GPRESSAVG
ENERGY: 0 1.8697 14.2443 5.7836 0.0000 -10576.6730 1451.2083 0.0000 0.0000 1664.5787 -7438.9885 288.1507 -9103.5672 -7438.9885 288.1507 273.5155 354.7067 29367.0903 273.5155 354.7067
ENERGY: 300000 4.7601 9.8412 5.8803 0.0000 -10454.0094 1438.8690 0.0000 0.0000 1697.6219 -7297.0369 293.8707 -8994.6588 -7350.7804 293.5506 465.4886 514.3178 29515.2652 348.2506 432.2258
ENERGY: 600000 1.6192 13.3116 6.4218 0.0000 -10514.1639 1406.8298 0.0000 0.0000 1785.9490 -7300.0324 309.1608 -9085.9815 -7342.5201 295.9662 -155.3475 -124.5391 29492.3511 173.1208 244.3018
ENERGY: 900000 3.1622 14.5561 5.5917 0.0000 -10485.9985 1418.6084 0.0000 0.0000 1716.2201 -7327.8599 297.0902 -9044.0800 -7335.6529 297.4980 -416.2529 -369.0523 30348.6521 28.7064 100.2161
ENERGY: 1200000 1.2312 16.3528 6.4874 0.0000 -10520.8455 1505.6527 0.0000 0.0000 1715.6342 -7275.4872 296.9888 -8991.1214 -7328.8340 298.2645 782.7072 765.1713 29972.9751 87.7645 146.3900
ENERGY: 1500000 1.5683 12.5092 6.6230 0.0000 -10364.3486 1320.8361 0.0000 0.0000 1773.4638 -7249.3482 306.9995 -9022.8120 -7313.1696 299.7076 -699.3275 -645.3721 29683.3107 149.9323 213.4723
TCL: Exiting due to exit command.
