Info: SIMULATION PARAMETERS:
Info: TIMESTEP               2
Info: NUMBER OF STEPS        0
Info: STEPS PER CYCLE        10
Info: PERIODIC CELL BASIS 1  32.8408 0 0
Info: PERIODIC CELL BASIS 2  0 28.4408 0
Info: PERIODIC CELL BASIS 3  0 0 32.3543
Info: PERIODIC CELL CENTER   0 0 0
Info: WRAPPING WATERS AROUND PERIODIC BOUNDARIES ON OUTPUT.
Info: WRAPPING ALL CLUSTERS AROUND PERIODIC BOUNDARIES ON OUTPUT.
Info: FIRST LDB TIMESTEP     50
Info: LAST LDB TIMESTEP     -1
Info: HOM BACKGROUND SCALING 1
Info: PME BACKGROUND SCALING 1
Info: MIN ATOMS PER PATCH    40
Info: EMPTY PATCH LOAD       40 ATOMS
Info: VELOCITY FILE          mobley_3802803_equil.vel
Info: CENTER OF MASS MOVING INITIALLY? NO
Info: DIELECTRIC             1
Info: EXCLUDE                SCALED ONE-FOUR
Info: 1-4 ELECTROSTATICS SCALED BY 0.833333
Info: MODIFIED 1-4 VDW PARAMETERS WILL BE USED
Info: DCD FILENAME           mobley_3802803_prod.dcd
Info: DCD FREQUENCY          100000
Info: DCD FIRST STEP         100000
Info: DCD FILE WILL CONTAIN UNIT CELL DATA
Info: XST FILENAME           mobley_3802803_prod.xst
Info: XST FREQUENCY          100000
Info: NO VELOCITY DCD OUTPUT
Info: NO FORCE DCD OUTPUT
Info: OUTPUT FILENAME        mobley_3802803_prod
Info: BINARY OUTPUT FILES WILL BE USED
Info: RESTART FILENAME       mobley_3802803_prod.restart
Info: RESTART FREQUENCY      100000
Info: BINARY RESTART FILES WILL BE USED
Info: CUTOFF                 9
Info: PAIRLIST DISTANCE      11
Info: PAIRLIST SHRINK RATE   0.01
Info: PAIRLIST GROW RATE     0.01
Info: PAIRLIST TRIGGER       0.3
Info: PAIRLISTS PER CYCLE    2
Info: PAIRLISTS ENABLED
Info: MARGIN                 2
Info: HYDROGEN GROUP CUTOFF  2.5
Info: PATCH DIMENSION        15.5
Info: ENERGY OUTPUT STEPS    100000
Info: ENERGY EVALUATION STEPS    100000
Info: OUTPUT ENERGY PRECISION 4
Info: CROSSTERM ENERGY INCLUDED IN DIHEDRAL
Info: TIMING OUTPUT STEPS    1000000
Info: PRESSURE OUTPUT STEPS  100000
Info: ALCHEMICAL FEP ON
Info: FEP CURRENT LAMBDA VALUE     1
Info: FEP COMPARISON LAMBDA VALUE  0.95
Info: FEP INTRA-ALCHEMICAL NON-BONDED INTERACTIONS WILL BE RETAINED
Info: FEP INTRA-ALCHEMICAL BONDED INTERACTIONS WILL BE RETAINED
Info: FEP VDW SHIFTING COEFFICIENT 5
Info: FEP ELEC. ACTIVE FOR ANNIHILATED PARTICLES BETWEEN LAMBDA = 0 AND LAMBDA = 0.5
Info: FEP ELEC. ACTIVE FOR EXNIHILATED PARTICLES BETWEEN LAMBDA = 0.5 AND LAMBDA = 1
Info: FEP VDW ACTIVE FOR ANNIHILATED PARTICLES BETWEEN LAMBDA = 0 AND LAMBDA = 1
Info: FEP VDW ACTIVE FOR EXNIHILATED PARTICLES BETWEEN LAMBDA = 0 AND LAMBDA = 1
Info: FEP BOND ACTIVE FOR ANNIHILATED PARTICLES BETWEEN LAMBDA = 1 AND LAMBDA = 1
Info: FEP BOND ACTIVE FOR EXNIHILATED PARTICLES BETWEEN LAMBDA = 0 AND LAMBDA = 0
Info: LANGEVIN DYNAMICS ACTIVE
Info: LANGEVIN TEMPERATURE   300
Info: LANGEVIN USING BBK INTEGRATOR
Info: LANGEVIN DAMPING COEFFICIENT IS 1 INVERSE PS
Info: LANGEVIN DYNAMICS APPLIED TO HYDROGENS
Info: LANGEVIN PISTON PRESSURE CONTROL ACTIVE
Info:        TARGET PRESSURE IS 1.01325 BAR
Info:     OSCILLATION PERIOD IS 50 FS
Info:             DECAY TIME IS 25 FS
Info:     PISTON TEMPERATURE IS 300 K
Info:       PRESSURE CONTROL IS GROUP-BASED
Info:    INITIAL STRAIN RATE IS -0.000518408 -0.000518408 -0.000518408
Info:       CELL FLUCTUATION IS ISOTROPIC
Info: PARTICLE MESH EWALD (PME) ACTIVE
Info: PME TOLERANCE               1e-06
Info: PME EWALD COEFFICIENT       0.348832
Info: PME INTERPOLATION ORDER     4
Info: PME GRID DIMENSIONS         36 32 36
Info: PME MAXIMUM GRID SPACING    1
Info: PME CALCULATION WILL BE PERFORMED ON GPU
Info: FULL ELECTROSTATIC EVALUATION FREQUENCY      2
Info: USING VERLET I (r-RESPA) MTS SCHEME.
Info: C1 SPLITTING OF LONG RANGE ELECTROSTATICS
Info: PLACING ATOMS IN PATCHES BY HYDROGEN GROUPS
Info: RIGID BONDS TO HYDROGEN : ALL
Info:         ERROR TOLERANCE : 1e-08
Info:          MAX ITERATIONS : 100
Info: RIGID WATER USING SETTLE ALGORITHM
Info: RANDOM NUMBER SEED     1744107013
Info: USE HYDROGEN BONDS?    NO
Info: Using AMBER format force field!
Info: AMBER PARM FILE        mobley_3802803.prmtop
Info: COORDINATE PDB         mobley_3802803.pdb
Info: Exclusions will be read from PARM file!
Info: SCNB (VDW SCALING)     2
Info: USING ARITHMETIC MEAN TO COMBINE L-J SIGMA PARAMETERS
Info: BINARY COORDINATES     mobley_3802803_equil.coor
Info: SUMMARY OF PARAMETERS:
Info: 8 BONDS
Info: 10 ANGLES
Info:   10 HARMONIC
Info:   0 COSINE-BASED
Info: 10 DIHEDRAL
Info: 0 IMPROPER
Info: 0 CROSSTERM
Info: 0 VDW
Info: 36 VDW_PAIRS
Info: 0 NBTHOLE_PAIRS
Info: To read alchdata from file: mobley_3802803.pdb
Info: To read alchflag data from column: 5
Info: STRUCTURE SUMMARY:
Info: 2948 ATOMS
Info: 2947 BONDS
Info: 40 ANGLES
Info: 58 DIHEDRALS
Info: 0 IMPROPERS
Info: 0 CROSSTERMS
Info: 3037 EXCLUSIONS
Info: 2938 RIGID BONDS
Info: ALCH: 0 ATOMS TO DISAPPEAR IN FINAL STATE
Info: ALCH: 23 ATOMS TO APPEAR IN FINAL STATE
Info: 5906 DEGREES OF FREEDOM
Info: 985 HYDROGEN GROUPS
Info: 4 ATOMS IN LARGEST HYDROGEN GROUP
Info: 985 MIGRATION GROUPS
Info: 4 ATOMS IN LARGEST MIGRATION GROUP
Info: TOTAL MASS = 17712.8 amu
Info: TOTAL CHARGE = -0.000200003 e
Info: MASS DENSITY = 0.973326 g/cm^3
Info: ATOM DENSITY = 0.0975528 atoms/A^3
Info: ADDED 0 IMPLICIT EXCLUSIONS
Info: NONBONDED TABLE R-SQUARED SPACING: 0.0625
Info: NONBONDED TABLE SIZE: 705 POINTS
Info: REMOVING COM VELOCITY 0.0202794 -0.0153765 -0.0103973
Info: Use 3D box decompostion in PME FFT.
Info: Updated CUDA force table with 4096 elements.
Info: Updated CUDA LJ table with 8 x 8 elements.
Info: Found 26 unique exclusion lists needing 84 bytes
TCL: Running for 1500000 steps
ETITLE: TS BOND ANGLE DIHED IMPRP ELECT VDW BOUNDARY MISC KINETIC TOTAL TEMP POTENTIAL TOTALAVG TEMPAVG PRESSURE GPRESSURE VOLUME PRESSAVG GPRESSAVG
ENERGY: 0 4.8225 7.1800 4.3288 0.0000 -10679.5286 1515.3211 0.0000 0.0000 1759.8775 -7387.9987 299.9020 -9147.8762 -7387.9987 299.9020 760.9643 836.6815 30219.5291 760.9643 836.6815
ENERGY: 300000 7.8476 12.5309 4.0700 0.0000 -10717.5547 1451.8983 0.0000 0.0000 1756.6058 -7484.6020 299.3445 -9241.2078 -7417.9000 303.0951 41.2952 129.0310 30306.3258 -153.3739 -76.7304
ENERGY: 600000 1.9530 9.1682 4.5090 0.0000 -10486.7204 1303.1058 0.0000 0.0000 1782.6337 -7385.3507 303.7799 -9167.9844 -7432.4295 299.6410 -1006.3175 -912.8481 30517.5367 -255.9519 -182.2957
ENERGY: 900000 3.3335 9.2278 4.6223 0.0000 -10670.1535 1395.4349 0.0000 0.0000 1762.4788 -7495.0562 300.3453 -9257.5350 -7446.1790 298.6175 -594.1668 -509.2896 30602.8740 -244.5082 -172.8414
ENERGY: 1200000 1.0749 9.5311 3.6194 0.0000 -10609.9501 1442.3997 0.0000 0.0000 1746.2650 -7407.0600 297.5823 -9153.3250 -7433.1975 298.7021 364.8844 403.3660 30433.4921 -170.3789 -101.8353
ENERGY: 1500000 4.5251 6.6295 4.2227 0.0000 -10732.0628 1466.1275 0.0000 0.0000 1738.8268 -7511.7312 296.3147 -9250.5580 -7443.1117 298.6249 47.0061 54.2709 30397.6379 -171.8480 -111.9709
TCL: Running FEP window   2: Lambda1 0.95   Lambda2 0.8999999999999999 [dLambda -0.050000000000000044]
TCL: Setting parameter firsttimestep to 0
TCL: Setting parameter alchLambda to 0.95
Info: NONBONDED TABLE R-SQUARED SPACING: 0.0625
Info: NONBONDED TABLE SIZE: 705 POINTS
TCL: Setting parameter alchLambda2 to 0.8999999999999999
Info: NONBONDED TABLE R-SQUARED SPACING: 0.0625
Info: NONBONDED TABLE SIZE: 705 POINTS
TCL: Running for 1500000 steps
ETITLE: TS BOND ANGLE DIHED IMPRP ELECT VDW BOUNDARY MISC KINETIC TOTAL TEMP POTENTIAL TOTALAVG TEMPAVG PRESSURE GPRESSURE VOLUME PRESSAVG GPRESSAVG
ENERGY: 0 4.5251 6.6295 4.2227 0.0000 -10731.6360 1466.2879 0.0000 0.0000 1737.9174 -7512.0534 296.1598 -9249.9708 -7512.0534 296.1598 -30.2913 39.6905 30397.6379 -30.2913 39.6905
ENERGY: 300000 3.5032 9.1935 6.5308 0.0000 -10642.5107 1402.7991 0.0000 0.0000 1732.7018 -7487.7823 295.2710 -9220.4841 -7477.4476 298.6869 -450.7916 -360.4731 30488.9590 168.7698 247.7360
ENERGY: 600000 2.7995 8.4529 3.6761 0.0000 -10620.1622 1353.6797 0.0000 0.0000 1780.1588 -7471.3953 303.3582 -9251.5541 -7453.5633 300.0432 -489.2920 -415.8074 30036.0269 -70.0884 -2.3528
ENERGY: 900000 2.3716 11.3426 6.2587 0.0000 -10653.3655 1395.0610 0.0000 0.0000 1751.5857 -7486.7460 298.4890 -9238.3316 -7453.6756 299.4794 -563.0547 -509.7506 30781.8198 -153.4295 -76.4700
ENERGY: 1200000 1.8770 9.2720 6.2043 0.0000 -10774.4197 1521.0430 0.0000 0.0000 1766.5074 -7469.5160 301.0318 -9236.0234 -7454.3081 300.8705 788.0769 821.6915 30022.0676 13.3973 81.7731
ENERGY: 1500000 3.9922 11.8040 5.0846 0.0000 -10595.9218 1364.9039 0.0000 0.0000 1825.5238 -7384.6133 311.0888 -9210.1371 -7452.2668 301.0106 -440.8592 -367.8223 30308.7530 -20.8450 51.7661
TCL: Running FEP window   3: Lambda1 0.8999999999999999 Lambda2 0.8499999999999999 [dLambda -0.050000000000000044]
TCL: Setting parameter firsttimestep to 0
TCL: Setting parameter alchLambda to 0.8999999999999999
Info: NONBONDED TABLE R-SQUARED SPACING: 0.0625
Info: NONBONDED TABLE SIZE: 705 POINTS
TCL: Setting parameter alchLambda2 to 0.8499999999999999
Info: NONBONDED TABLE R-SQUARED SPACING: 0.0625
Info: NONBONDED TABLE SIZE: 705 POINTS
TCL: Running for 1500000 steps
ETITLE: TS BOND ANGLE DIHED IMPRP ELECT VDW BOUNDARY MISC KINETIC TOTAL TEMP POTENTIAL TOTALAVG TEMPAVG PRESSURE GPRESSURE VOLUME PRESSAVG GPRESSAVG
ENERGY: 0 3.9922 11.8040 5.0846 0.0000 -10595.3461 1365.1047 0.0000 0.0000 1824.6187 -7384.7420 310.9346 -9209.3607 -7384.7420 310.9346 -470.2714 -380.5964 30308.7530 -470.2714 -380.5964
ENERGY: 300000 3.1436 8.2617 5.8220 0.0000 -10607.9937 1384.1320 0.0000 0.0000 1833.2687 -7373.3658 312.4087 -9206.6345 -7437.9489 303.9779 -392.1584 -311.1249 30571.5958 -193.6306 -124.6061
ENERGY: 600000 1.2256 10.3427 10.2615 0.0000 -10806.1867 1508.4630 0.0000 0.0000 1755.6522 -7520.2416 299.1820 -9275.8938 -7456.6778 302.2914 317.7233 379.0204 30209.2570 17.1070 86.7253
ENERGY: 900000 4.9095 10.8157 3.5257 0.0000 -10814.3776 1547.3403 0.0000 0.0000 1831.4383 -7416.3482 312.0967 -9247.7865 -7455.3993 303.5393 590.2677 697.6684 30520.0233 107.0130 182.2808
ENERGY: 1200000 3.8414 9.7733 3.3442 0.0000 -10542.7982 1310.0945 0.0000 0.0000 1750.4407 -7465.3042 298.2939 -9215.7448 -7452.3149 302.1904 -872.6154 -834.6952 30643.2874 55.3311 124.6220
ENERGY: 1500000 3.3354 12.5817 3.9982 0.0000 -10619.6896 1398.4462 0.0000 0.0000 1776.9759 -7424.3523 302.8158 -9201.3282 -7446.3222 302.2921 -226.8276 -195.4824 30646.9270 -16.8310 50.2847
TCL: Running FEP window   4: Lambda1 0.8499999999999999 Lambda2 0.7999999999999998 [dLambda -0.050000000000000044]
TCL: Setting parameter firsttimestep to 0
TCL: Setting parameter alchLambda to 0.8499999999999999
Info: NONBONDED TABLE R-SQUARED SPACING: 0.0625
Info: NONBONDED TABLE SIZE: 705 POINTS
TCL: Setting parameter alchLambda2 to 0.7999999999999998
Info: NONBONDED TABLE R-SQUARED SPACING: 0.0625
Info: NONBONDED TABLE SIZE: 705 POINTS
TCL: Running for 1500000 steps
ETITLE: TS BOND ANGLE DIHED IMPRP ELECT VDW BOUNDARY MISC KINETIC TOTAL TEMP POTENTIAL TOTALAVG TEMPAVG PRESSURE GPRESSURE VOLUME PRESSAVG GPRESSAVG
ENERGY: 0 3.3354 12.5817 3.9982 0.0000 -10619.4477 1399.0207 0.0000 0.0000 1776.0799 -7424.4318 302.6631 -9200.5118 -7424.4318 302.6631 -296.0323 -202.1935 30646.9270 -296.0323 -202.1935
ENERGY: 300000 2.6551 8.7984 5.1718 0.0000 -10598.0437 1391.0300 0.0000 0.0000 1732.2375 -7458.1509 295.1919 -9190.3884 -7418.5171 297.8790 -95.6392 -22.0114 30267.6816 -47.8185 8.0280
ENERGY: 600000 3.2460 14.2091 3.6764 0.0000 -10555.4932 1361.7673 0.0000 0.0000 1790.9723 -7381.6221 305.2009 -9172.5944 -7404.7954 298.6080 -466.3380 -359.8648 30425.6615 -187.9202 -124.6179
ENERGY: 900000 2.9865 9.8898 4.0550 0.0000 -10659.2778 1425.6602 0.0000 0.0000 1796.3768 -7420.3095 306.1219 -9216.6863 -7410.3148 300.7914 3.7356 48.7671 30269.4794 -137.0839 -67.0797
ENERGY: 1200000 1.6177 14.0980 4.2926 0.0000 -10583.5320 1376.3140 0.0000 0.0000 1754.7419 -7432.4678 299.0268 -9187.2096 -7429.1824 300.3485 -365.0522 -349.9511 30612.3654 -162.4040 -103.9404
ENERGY: 1500000 5.1666 9.4578 4.8032 0.0000 -10647.8579 1447.8937 0.0000 0.0000 1752.4472 -7428.0895 298.6358 -9180.5366 -7435.4463 299.4881 -27.9600 98.6795 30330.7563 -46.0476 16.8331
TCL: Running FEP window   5: Lambda1 0.7999999999999998 Lambda2 0.7499999999999998 [dLambda -0.050000000000000044]
TCL: Setting parameter firsttimestep to 0
TCL: Setting parameter alchLambda to 0.7999999999999998
Info: NONBONDED TABLE R-SQUARED SPACING: 0.0625
Info: NONBONDED TABLE SIZE: 705 POINTS
TCL: Setting parameter alchLambda2 to 0.7499999999999998
Info: NONBONDED TABLE R-SQUARED SPACING: 0.0625
Info: NONBONDED TABLE SIZE: 705 POINTS
TCL: Running for 1500000 steps
ETITLE: TS BOND ANGLE DIHED IMPRP ELECT VDW BOUNDARY MISC KINETIC TOTAL TEMP POTENTIAL TOTALAVG TEMPAVG PRESSURE GPRESSURE VOLUME PRESSAVG GPRESSAVG
ENERGY: 0 5.1666 9.4578 4.8032 0.0000 -10647.5317 1447.7418 0.0000 0.0000 1751.5610 -7428.8013 298.4848 -9180.3623 -7428.8013 298.4848 -0.3396 82.9285 30330.7563 -0.3396 82.9285
ENERGY: 300000 3.2520 10.3211 6.0050 0.0000 -10549.3337 1356.9117 0.0000 0.0000 1734.4269 -7438.4169 295.5650 -9172.8439 -7440.8134 299.0322 -376.7106 -298.2941 30237.9586 -97.8610 -31.1280
ENERGY: 600000 2.5690 11.2048 4.3400 0.0000 -10672.1595 1495.1078 0.0000 0.0000 1729.9372 -7429.0005 294.7999 -9158.9378 -7445.8336 298.7078 177.8564 254.0146 31333.9843 -113.0113 -47.3569
ENERGY: 900000 2.9827 10.2390 6.2591 0.0000 -10520.0113 1345.6278 0.0000 0.0000 1763.3974 -7391.5054 300.5018 -9154.9028 -7433.7361 299.5016 -679.9808 -571.6203 30565.5494 -204.9935 -132.0904
ENERGY: 1200000 0.9544 9.9886 4.9028 0.0000 -10711.4755 1423.5845 0.0000 0.0000 1732.5189 -7539.5263 295.2398 -9272.0451 -7452.2178 298.4630 -66.6770 -17.3921 30086.4627 -130.5198 -61.4660
ENERGY: 1500000 3.5595 12.1703 5.7744 0.0000 -10630.1124 1431.9362 0.0000 0.0000 1804.0899 -7372.5822 307.4363 -9176.6721 -7449.4639 299.4733 -17.1728 1.2709 30512.6581 -85.5625 -19.7798
TCL: Running FEP window   6: Lambda1 0.7499999999999998 Lambda2 0.6999999999999997 [dLambda -0.050000000000000044]
TCL: Setting parameter firsttimestep to 0
TCL: Setting parameter alchLambda to 0.7499999999999998
Info: NONBONDED TABLE R-SQUARED SPACING: 0.0625
Info: NONBONDED TABLE SIZE: 705 POINTS
TCL: Setting parameter alchLambda2 to 0.6999999999999997
Info: NONBONDED TABLE R-SQUARED SPACING: 0.0625
Info: NONBONDED TABLE SIZE: 705 POINTS
TCL: Running for 1500000 steps
ETITLE: TS BOND ANGLE DIHED IMPRP ELECT VDW BOUNDARY MISC KINETIC TOTAL TEMP POTENTIAL TOTALAVG TEMPAVG PRESSURE GPRESSURE VOLUME PRESSAVG GPRESSAVG
ENERGY: 0 3.5595 12.1703 5.7744 0.0000 -10629.3802 1432.5211 0.0000 0.0000 1803.2428 -7372.1122 307.2919 -9175.3549 -7372.1122 307.2919 -103.3864 -6.6927 30512.6581 -103.3864 -6.6927
ENERGY: 300000 1.8122 8.6351 6.4345 0.0000 -10717.2568 1465.5831 0.0000 0.0000 1787.9942 -7446.7977 304.6934 -9234.7919 -7414.0977 302.3307 384.6352 371.9433 30334.3538 225.0854 274.2043
ENERGY: 600000 4.8028 11.1699 5.4419 0.0000 -10634.2872 1467.6789 0.0000 0.0000 1817.8517 -7327.3420 309.7814 -9145.1938 -7401.3046 302.3263 484.4516 503.5650 30569.7879 207.2811 245.4726
ENERGY: 900000 3.8427 8.0943 4.8788 0.0000 -10700.6400 1429.7945 0.0000 0.0000 1764.5849 -7489.4448 300.7042 -9254.0297 -7425.2779 301.0275 140.6031 158.4820 29787.2660 82.5959 129.9803
ENERGY: 1200000 3.9403 9.9737 5.5883 0.0000 -10526.4034 1393.7775 0.0000 0.0000 1700.6806 -7412.4430 289.8142 -9113.1236 -7412.0983 299.9955 -204.5168 -103.9941 30527.5806 -20.0697 32.6234
ENERGY: 1500000 1.5532 12.3149 4.1288 0.0000 -10565.2087 1339.2891 0.0000 0.0000 1760.4957 -7447.4271 300.0074 -9207.9228 -7424.9892 300.0501 -895.6324 -832.1872 30733.0096 -83.7075 -29.1352
TCL: Running FEP window   7: Lambda1 0.6999999999999997 Lambda2 0.6499999999999997 [dLambda -0.050000000000000044]
TCL: Setting parameter firsttimestep to 0
TCL: Setting parameter alchLambda to 0.6999999999999997
Info: NONBONDED TABLE R-SQUARED SPACING: 0.0625
Info: NONBONDED TABLE SIZE: 705 POINTS
TCL: Setting parameter alchLambda2 to 0.6499999999999997
Info: NONBONDED TABLE R-SQUARED SPACING: 0.0625
Info: NONBONDED TABLE SIZE: 705 POINTS
TCL: Running for 1500000 steps
ETITLE: TS BOND ANGLE DIHED IMPRP ELECT VDW BOUNDARY MISC KINETIC TOTAL TEMP POTENTIAL TOTALAVG TEMPAVG PRESSURE GPRESSURE VOLUME PRESSAVG GPRESSAVG
ENERGY: 0 1.5532 12.3149 4.1288 0.0000 -10564.9627 1339.6013 0.0000 0.0000 1759.5635 -7447.8010 299.8485 -9207.3645 -7447.8010 299.8485 -921.0967 -841.4043 30733.0096 -921.0967 -841.4043
ENERGY: 300000 2.2825 8.1704 2.0000 0.0000 -10652.9579 1412.8041 0.0000 0.0000 1792.6988 -7435.0022 305.4951 -9227.7010 -7410.7800 305.5909 -391.6639 -306.3438 30751.2751 -362.6270 -317.3410
ENERGY: 600000 2.4263 14.4013 5.7737 0.0000 -10690.5556 1541.3192 0.0000 0.0000 1757.3352 -7369.2997 299.4688 -9126.6350 -7418.1063 300.4746 802.1908 942.0204 30866.7732 -252.9310 -183.5427
ENERGY: 900000 4.8342 11.1632 3.7617 0.0000 -10701.0591 1456.8152 0.0000 0.0000 1769.7780 -7454.7069 301.5892 -9224.4849 -7425.8657 300.1103 155.6152 207.5058 30523.8995 -205.5067 -143.3811
ENERGY: 1200000 3.8888 13.3571 4.8770 0.0000 -10615.7354 1397.1584 0.0000 0.0000 1697.8593 -7498.5949 289.3334 -9196.4541 -7433.5731 299.1196 -669.6195 -630.7647 30749.1771 -183.8809 -129.0902
ENERGY: 1500000 2.3515 13.3728 6.2645 0.0000 -10610.6813 1395.3331 0.0000 0.0000 1749.3498 -7444.0096 298.1080 -9193.3594 -7434.9514 299.1025 -378.6758 -336.4648 30474.7931 -189.7563 -132.5009
TCL: Running FEP window   8: Lambda1 0.6499999999999997 Lambda2 0.5999999999999996 [dLambda -0.050000000000000044]
TCL: Setting parameter firsttimestep to 0
TCL: Setting parameter alchLambda to 0.6499999999999997
Info: NONBONDED TABLE R-SQUARED SPACING: 0.0625
Info: NONBONDED TABLE SIZE: 705 POINTS
TCL: Setting parameter alchLambda2 to 0.5999999999999996
Info: NONBONDED TABLE R-SQUARED SPACING: 0.0625
Info: NONBONDED TABLE SIZE: 705 POINTS
TCL: Running for 1500000 steps
ETITLE: TS BOND ANGLE DIHED IMPRP ELECT VDW BOUNDARY MISC KINETIC TOTAL TEMP POTENTIAL TOTALAVG TEMPAVG PRESSURE GPRESSURE VOLUME PRESSAVG GPRESSAVG
ENERGY: 0 2.3515 13.3728 6.2645 0.0000 -10610.4247 1394.4749 0.0000 0.0000 1748.4434 -7445.5177 297.9535 -9193.9611 -7445.5177 297.9535 -435.0290 -359.7586 30474.7931 -435.0290 -359.7586
ENERGY: 300000 1.2437 5.5385 5.7258 0.0000 -10714.9014 1421.5515 0.0000 0.0000 1754.5819 -7526.2599 298.9996 -9280.8418 -7425.5419 304.8717 -147.0803 8.5903 29761.3466 -279.2479 -183.9654
ENERGY: 600000 3.9873 12.0846 5.2105 0.0000 -10630.4812 1415.5056 0.0000 0.0000 1679.3953 -7514.2980 286.1870 -9193.6933 -7453.7836 299.5045 -533.0052 -415.0423 30673.8836 -341.5923 -250.5408
ENERGY: 900000 2.5118 8.4263 3.0166 0.0000 -10595.9254 1349.0864 0.0000 0.0000 1773.5189 -7459.3653 302.2267 -9232.8843 -7447.7040 300.2770 -582.9311 -493.9292 30340.3636 -375.7449 -293.6804
ENERGY: 1200000 1.3318 9.8407 4.0262 0.0000 -10765.1397 1466.9697 0.0000 0.0000 1732.2187 -7550.7525 295.1887 -9282.9713 -7447.7797 300.0523 58.6652 115.3707 30227.5762 -327.7329 -248.3839
ENERGY: 1500000 5.8585 7.9994 3.6924 0.0000 -10609.4459 1415.1870 0.0000 0.0000 1750.0911 -7426.6175 298.2343 -9176.7086 -7445.1598 299.3244 97.2592 182.8209 30158.0402 -326.7168 -245.2588
TCL: Running FEP window   9: Lambda1 0.5999999999999996 Lambda2 0.5499999999999996 [dLambda -0.050000000000000044]
TCL: Setting parameter firsttimestep to 0
TCL: Setting parameter alchLambda to 0.5999999999999996
Info: NONBONDED TABLE R-SQUARED SPACING: 0.0625
Info: NONBONDED TABLE SIZE: 705 POINTS
TCL: Setting parameter alchLambda2 to 0.5499999999999996
Info: NONBONDED TABLE R-SQUARED SPACING: 0.0625
Info: NONBONDED TABLE SIZE: 705 POINTS
TCL: Running for 1500000 steps
ETITLE: TS BOND ANGLE DIHED IMPRP ELECT VDW BOUNDARY MISC KINETIC TOTAL TEMP POTENTIAL TOTALAVG TEMPAVG PRESSURE GPRESSURE VOLUME PRESSAVG GPRESSAVG
ENERGY: 0 5.8585 7.9994 3.6924 0.0000 -10609.2072 1414.9401 0.0000 0.0000 1749.2330 -7427.4837 298.0881 -9176.7167 -7427.4837 298.0881 96.6853 170.8857 30158.0402 96.6853 170.8857
ENERGY: 300000 3.1503 12.1568 6.9280 0.0000 -10568.0661 1364.8425 0.0000 0.0000 1689.3899 -7491.5985 287.8902 -9180.9884 -7465.0248 297.4556 -492.1197 -343.9295 30143.7456 -40.5695 67.4762
ENERGY: 600000 1.1821 11.1263 3.0347 0.0000 -10668.6085 1506.7175 0.0000 0.0000 1704.8440 -7441.7040 290.5237 -9146.5480 -7430.9771 298.7803 816.5847 869.5700 30250.2297 37.7309 117.2571
ENERGY: 900000 1.7931 10.4010 6.3697 0.0000 -10688.6516 1487.4241 0.0000 0.0000 1804.9281 -7377.7356 307.5791 -9182.6637 -7434.5081 299.3487 833.1106 795.9402 29806.5338 -38.4317 22.9095
ENERGY: 1200000 1.1604 10.3747 5.6288 0.0000 -10669.3613 1444.3454 0.0000 0.0000 1706.4786 -7501.3735 290.8023 -9207.8520 -7427.9848 299.4072 150.0133 181.8231 30613.5026 -31.4356 24.7260
ENERGY: 1500000 3.0404 8.3240 4.5268 0.0000 -10697.7026 1476.5193 0.0000 0.0000 1732.7342 -7472.5579 295.2765 -9205.2921 -7424.0167 299.3468 364.7195 393.4962 30230.5163 -30.6701 20.9622
TCL: Running FEP window  10: Lambda1 0.5499999999999996 Lambda2 0.4999999999999996 [dLambda -0.04999999999999999]
TCL: Setting parameter firsttimestep to 0
TCL: Setting parameter alchLambda to 0.5499999999999996
Info: NONBONDED TABLE R-SQUARED SPACING: 0.0625
Info: NONBONDED TABLE SIZE: 705 POINTS
TCL: Setting parameter alchLambda2 to 0.4999999999999996
Info: NONBONDED TABLE R-SQUARED SPACING: 0.0625
Info: NONBONDED TABLE SIZE: 705 POINTS
TCL: Running for 1500000 steps
ETITLE: TS BOND ANGLE DIHED IMPRP ELECT VDW BOUNDARY MISC KINETIC TOTAL TEMP POTENTIAL TOTALAVG TEMPAVG PRESSURE GPRESSURE VOLUME PRESSAVG GPRESSAVG
ENERGY: 0 3.0404 8.3240 4.5268 0.0000 -10697.5726 1476.7822 0.0000 0.0000 1731.8697 -7473.0295 295.1292 -9204.8992 -7473.0295 295.1292 295.1709 385.4677 30230.5163 295.1709 385.4677
ENERGY: 300000 3.4990 16.2393 4.0870 0.0000 -10575.3091 1413.6033 0.0000 0.0000 1718.5951 -7419.2856 292.8670 -9137.8807 -7462.4356 297.9669 70.8254 112.7952 30094.5974 229.2889 317.3098
ENERGY: 600000 5.2769 10.9403 4.9940 0.0000 -10705.6628 1418.1347 0.0000 0.0000 1766.7761 -7499.5409 301.0776 -9266.3170 -7449.1680 297.9613 -491.5813 -395.2305 30331.8457 72.8713 151.8599
ENERGY: 900000 5.2671 8.3366 4.9647 0.0000 -10756.6426 1446.6745 0.0000 0.0000 1750.8336 -7540.5660 298.3608 -9291.3996 -7451.9993 298.3767 -271.7197 -238.4075 30223.5003 -19.7227 48.8812
ENERGY: 1200000 1.3687 8.0161 2.9721 0.0000 -10583.5749 1375.6950 0.0000 0.0000 1762.3538 -7433.1692 300.3240 -9195.5230 -7436.9926 298.4244 -439.4421 -320.3532 30237.9139 -49.5923 20.4403
ENERGY: 1500000 1.5793 15.0065 5.5123 0.0000 -10578.5510 1420.5754 0.0000 0.0000 1744.2230 -7391.6545 297.2343 -9135.8775 -7435.8476 298.6044 120.7527 133.2717 30532.0046 -19.1829 44.9854
TCL: Running FEP window  11: Lambda1 0.4999999999999996 Lambda2 0.4499999999999996 [dLambda -0.04999999999999999]
TCL: Setting parameter firsttimestep to 0
TCL: Setting parameter alchLambda to 0.4999999999999996
Info: NONBONDED TABLE R-SQUARED SPACING: 0.0625
Info: NONBONDED TABLE SIZE: 705 POINTS
TCL: Setting parameter alchLambda2 to 0.4499999999999996
Info: NONBONDED TABLE R-SQUARED SPACING: 0.0625
Info: NONBONDED TABLE SIZE: 705 POINTS
TCL: Running for 1500000 steps
ETITLE: TS BOND ANGLE DIHED IMPRP ELECT VDW BOUNDARY MISC KINETIC TOTAL TEMP POTENTIAL TOTALAVG TEMPAVG PRESSURE GPRESSURE VOLUME PRESSAVG GPRESSAVG
ENERGY: 0 1.5793 15.0065 5.5123 0.0000 -10578.3491 1419.9003 0.0000 0.0000 1743.3554 -7392.9952 297.0865 -9136.3506 -7392.9952 297.0865 43.6708 116.6086 30532.0046 43.6708 116.6086
ENERGY: 300000 2.9407 8.1867 4.5922 0.0000 -10511.6161 1331.0932 0.0000 0.0000 1748.6167 -7416.1864 297.9831 -9164.8031 -7396.4611 300.1317 -667.9630 -643.9784 30409.0421 -70.1087 -2.1929
ENERGY: 600000 1.5012 11.6076 4.0807 0.0000 -10645.1485 1349.4439 0.0000 0.0000 1758.6639 -7519.8512 299.6952 -9278.5151 -7429.8924 300.2011 -755.3896 -739.3461 30162.6887 -184.0853 -118.3742
ENERGY: 900000 3.8316 6.2135 3.5830 0.0000 -10518.9622 1343.6668 0.0000 0.0000 1772.7640 -7388.9033 302.0980 -9161.6673 -7422.9166 299.6802 -625.5962 -510.6828 30748.1570 -225.4761 -154.8584
ENERGY: 1200000 5.2948 17.7709 3.4443 0.0000 -10607.1994 1425.0630 0.0000 0.0000 1807.6873 -7347.9392 308.0493 -9155.6265 -7416.3804 300.5726 -119.8068 -29.1348 30285.1112 -124.3546 -58.9309
ENERGY: 1500000 0.9238 10.8153 4.2279 0.0000 -10645.6037 1392.0398 0.0000 0.0000 1710.0948 -7527.5021 291.4185 -9237.5969 -7424.3110 300.7932 -372.4175 -311.5405 30260.1535 -139.6443 -73.2206
TCL: Running FEP window  12: Lambda1 0.4499999999999996 Lambda2 0.39999999999999963 [dLambda -0.04999999999999999]
TCL: Setting parameter firsttimestep to 0
TCL: Setting parameter alchLambda to 0.4499999999999996
Info: NONBONDED TABLE R-SQUARED SPACING: 0.0625
Info: NONBONDED TABLE SIZE: 705 POINTS
TCL: Setting parameter alchLambda2 to 0.39999999999999963
Info: NONBONDED TABLE R-SQUARED SPACING: 0.0625
Info: NONBONDED TABLE SIZE: 705 POINTS
TCL: Running for 1500000 steps
ETITLE: TS BOND ANGLE DIHED IMPRP ELECT VDW BOUNDARY MISC KINETIC TOTAL TEMP POTENTIAL TOTALAVG TEMPAVG PRESSURE GPRESSURE VOLUME PRESSAVG GPRESSAVG
ENERGY: 0 0.9238 10.8152 4.2279 0.0000 -10645.6032 1392.5336 0.0000 0.0000 1709.2333 -7527.8694 291.2717 -9237.1027 -7527.8694 291.2717 -388.6477 -314.0046 30260.1535 -388.6477 -314.0046
ENERGY: 300000 2.2287 9.9941 5.7621 0.0000 -10652.0689 1510.8169 0.0000 0.0000 1779.6246 -7343.6425 303.2671 -9123.2671 -7465.4356 297.7676 759.5135 840.8630 30129.9139 -156.8402 -87.4134
ENERGY: 600000 2.1540 6.3904 5.1949 0.0000 -10648.8032 1423.5477 0.0000 0.0000 1734.8309 -7476.6855 295.6338 -9211.5163 -7465.9936 295.1988 -5.1097 67.1574 29968.2698 -95.3253 -18.8553
ENERGY: 900000 5.7877 12.0462 3.2478 0.0000 -10763.0403 1479.2266 0.0000 0.0000 1748.3850 -7514.3471 297.9436 -9262.7321 -7460.3267 297.7157 283.5916 362.6122 30319.8967 -55.3673 12.1639
ENERGY: 1200000 4.4592 10.0417 3.2544 0.0000 -10744.2337 1391.6385 0.0000 0.0000 1707.7953 -7627.0446 291.0266 -9334.8399 -7473.0915 297.3131 -640.5581 -613.8813 30234.8440 -133.4057 -70.0592
ENERGY: 1500000 0.9883 12.7034 5.9330 0.0000 -10655.0949 1470.2328 0.0000 0.0000 1754.6178 -7410.6196 299.0057 -9165.2374 -7467.5413 298.1114 342.7640 359.5900 30376.4977 -110.8002 -45.1225
TCL: Running FEP window  13: Lambda1 0.39999999999999963 Lambda2 0.34999999999999964 [dLambda -0.04999999999999999]
TCL: Setting parameter firsttimestep to 0
TCL: Setting parameter alchLambda to 0.39999999999999963
Info: NONBONDED TABLE R-SQUARED SPACING: 0.0625
Info: NONBONDED TABLE SIZE: 705 POINTS
TCL: Setting parameter alchLambda2 to 0.34999999999999964
Info: NONBONDED TABLE R-SQUARED SPACING: 0.0625
Info: NONBONDED TABLE SIZE: 705 POINTS
TCL: Running for 1500000 steps
ETITLE: TS BOND ANGLE DIHED IMPRP ELECT VDW BOUNDARY MISC KINETIC TOTAL TEMP POTENTIAL TOTALAVG TEMPAVG PRESSURE GPRESSURE VOLUME PRESSAVG GPRESSAVG
ENERGY: 0 0.9883 12.7034 5.9330 0.0000 -10655.0948 1470.6861 0.0000 0.0000 1753.7509 -7411.0331 298.8580 -9164.7840 -7411.0331 298.8580 284.1862 353.9040 30376.4977 284.1862 353.9040
ENERGY: 300000 3.6654 14.8893 3.8273 0.0000 -10592.9573 1368.6955 0.0000 0.0000 1764.3644 -7437.5154 300.6666 -9201.8798 -7440.4166 296.9884 -703.8429 -689.6959 30371.8518 -212.6964 -154.6212
ENERGY: 600000 2.8533 10.3027 4.3846 0.0000 -10793.0630 1482.0553 0.0000 0.0000 1791.5702 -7501.8968 305.3028 -9293.4670 -7443.3432 298.0326 328.2957 349.0862 29975.6279 -113.4412 -68.0268
ENERGY: 900000 5.3628 17.0475 5.1732 0.0000 -10737.9064 1545.1019 0.0000 0.0000 1775.8724 -7389.3487 302.6277 -9165.2211 -7443.7963 297.9721 716.2568 782.8405 30379.6144 127.2590 172.6115
ENERGY: 1200000 0.5599 7.4772 4.1422 0.0000 -10726.5859 1514.3883 0.0000 0.0000 1799.6051 -7400.4132 306.6720 -9200.0184 -7439.4818 298.8668 838.3965 906.6036 30074.1829 147.2510 189.5949
ENERGY: 1500000 3.8186 9.3152 5.4526 0.0000 -10649.8340 1461.0393 0.0000 0.0000 1760.7824 -7409.4259 300.0562 -9170.2083 -7430.5861 299.2075 204.3576 224.2648 30418.4420 50.9249 87.9958
TCL: Running FEP window  14: Lambda1 0.34999999999999964 Lambda2 0.29999999999999966 [dLambda -0.04999999999999999]
TCL: Setting parameter firsttimestep to 0
TCL: Setting parameter alchLambda to 0.34999999999999964
Info: NONBONDED TABLE R-SQUARED SPACING: 0.0625
Info: NONBONDED TABLE SIZE: 705 POINTS
TCL: Setting parameter alchLambda2 to 0.29999999999999966
Info: NONBONDED TABLE R-SQUARED SPACING: 0.0625
Info: NONBONDED TABLE SIZE: 705 POINTS
TCL: Running for 1500000 steps
ETITLE: TS BOND ANGLE DIHED IMPRP ELECT VDW BOUNDARY MISC KINETIC TOTAL TEMP POTENTIAL TOTALAVG TEMPAVG PRESSURE GPRESSURE VOLUME PRESSAVG GPRESSAVG
ENERGY: 0 3.8186 9.3152 5.4526 0.0000 -10649.8340 1461.4562 0.0000 0.0000 1759.8793 -7409.9121 299.9023 -9169.7914 -7409.9121 299.9023 137.5163 219.2292 30418.4420 137.5163 219.2292
ENERGY: 300000 3.7651 12.9764 4.4120 0.0000 -10645.0522 1427.5404 0.0000 0.0000 1778.3940 -7417.9643 303.0574 -9196.3583 -7428.1550 298.0759 -184.7675 -136.1968 30407.4153 -430.8463 -378.0957
ENERGY: 600000 4.0299 7.5861 2.8987 0.0000 -10593.0155 1434.0170 0.0000 0.0000 1723.1311 -7421.3527 293.6400 -9144.4838 -7434.2534 297.7298 32.8908 75.3367 30593.8802 -181.3411 -130.4128
ENERGY: 900000 6.0249 7.9584 3.1450 0.0000 -10580.4922 1407.3576 0.0000 0.0000 1797.0961 -7358.9101 306.2445 -9156.0062 -7422.8606 298.4853 -7.5579 65.2309 30295.5765 -134.6984 -79.6719
ENERGY: 1200000 2.8153 15.6045 5.0540 0.0000 -10493.6476 1310.9073 0.0000 0.0000 1747.1317 -7412.1348 297.7300 -9159.2665 -7415.8201 298.3572 -723.1461 -757.3843 30180.8108 -173.4461 -129.7846
ENERGY: 1500000 3.2967 7.7920 4.9526 0.0000 -10588.3029 1383.9266 0.0000 0.0000 1736.0201 -7452.3148 295.8365 -9188.3350 -7430.5121 297.9780 -609.1175 -533.1953 30555.1798 -148.8177 -100.9570
TCL: Running FEP window  15: Lambda1 0.29999999999999966 Lambda2 0.24999999999999967 [dLambda -0.04999999999999999]
TCL: Setting parameter firsttimestep to 0
TCL: Setting parameter alchLambda to 0.29999999999999966
Info: NONBONDED TABLE R-SQUARED SPACING: 0.0625
Info: NONBONDED TABLE SIZE: 705 POINTS
TCL: Setting parameter alchLambda2 to 0.24999999999999967
Info: NONBONDED TABLE R-SQUARED SPACING: 0.0625
Info: NONBONDED TABLE SIZE: 705 POINTS
TCL: Running for 1500000 steps
ETITLE: TS BOND ANGLE DIHED IMPRP ELECT VDW BOUNDARY MISC KINETIC TOTAL TEMP POTENTIAL TOTALAVG TEMPAVG PRESSURE GPRESSURE VOLUME PRESSAVG GPRESSAVG
ENERGY: 0 3.2967 7.7920 4.9526 0.0000 -10588.3011 1383.7961 0.0000 0.0000 1735.1657 -7453.2980 295.6909 -9188.4637 -7453.2980 295.6909 -628.8152 -541.9421 30555.1798 -628.8152 -541.9421
ENERGY: 300000 0.9846 8.9493 5.3109 0.0000 -10500.1544 1367.1502 0.0000 0.0000 1766.8556 -7350.9038 301.0912 -9117.7595 -7435.8196 299.6653 -232.9532 -200.6036 30335.1562 -211.1424 -159.0147
ENERGY: 600000 1.5750 11.7775 4.8534 0.0000 -10622.9535 1464.0095 0.0000 0.0000 1745.0841 -7395.6540 297.3811 -9140.7381 -7414.5041 301.0157 518.8238 610.1250 29989.6373 -74.3318 -30.9628
ENERGY: 900000 2.5295 8.8801 3.7442 0.0000 -10563.1524 1360.3202 0.0000 0.0000 1730.2515 -7457.4267 294.8534 -9187.6782 -7427.4651 300.9516 -909.1143 -861.3755 31066.7941 -169.2786 -118.7009
ENERGY: 1200000 2.1607 12.0355 3.7629 0.0000 -10520.0802 1350.8584 0.0000 0.0000 1794.5516 -7356.7111 305.8108 -9151.2627 -7406.8014 301.8463 -385.4718 -321.8386 30211.2859 -82.9826 -36.2262
ENERGY: 1500000 2.0082 20.4608 3.5012 0.0000 -10612.3673 1426.4748 0.0000 0.0000 1767.9432 -7391.9791 301.2765 -9159.9223 -7416.5453 301.2645 32.3979 48.3982 30552.6689 -83.4014 -27.7809
TCL: Running FEP window  16: Lambda1 0.24999999999999967 Lambda2 0.19999999999999968 [dLambda -0.04999999999999999]
TCL: Setting parameter firsttimestep to 0
TCL: Setting parameter alchLambda to 0.24999999999999967
Info: NONBONDED TABLE R-SQUARED SPACING: 0.0625
Info: NONBONDED TABLE SIZE: 705 POINTS
TCL: Setting parameter alchLambda2 to 0.19999999999999968
Info: NONBONDED TABLE R-SQUARED SPACING: 0.0625
Info: NONBONDED TABLE SIZE: 705 POINTS
TCL: Running for 1500000 steps
ETITLE: TS BOND ANGLE DIHED IMPRP ELECT VDW BOUNDARY MISC KINETIC TOTAL TEMP POTENTIAL TOTALAVG TEMPAVG PRESSURE GPRESSURE VOLUME PRESSAVG GPRESSAVG
ENERGY: 0 2.0082 20.4608 3.5012 0.0000 -10612.3660 1426.4392 0.0000 0.0000 1767.0736 -7392.8830 301.1283 -9159.9566 -7392.8830 301.1283 -39.3175 41.2936 30552.6689 -39.3175 41.2936
ENERGY: 300000 2.1111 9.3564 7.5530 0.0000 -10679.8017 1501.4282 0.0000 0.0000 1757.8616 -7401.4912 299.5585 -9159.3529 -7420.1985 299.3249 681.4351 725.2403 30148.0819 95.7163 160.1559
ENERGY: 600000 4.3742 7.8405 3.6700 0.0000 -10652.3815 1457.7784 0.0000 0.0000 1742.4961 -7436.2222 296.9400 -9178.7183 -7431.2008 299.1652 140.2574 170.1986 30284.1100 -70.4669 -2.0113
ENERGY: 900000 1.4729 9.5060 3.9260 0.0000 -10715.6976 1464.5380 0.0000 0.0000 1773.8729 -7462.3818 302.2870 -9236.2547 -7444.4681 299.8937 107.0210 195.2837 30257.7672 8.5404 75.8235
ENERGY: 1200000 3.8217 15.2157 3.1508 0.0000 -10621.1661 1519.0159 0.0000 0.0000 1828.7061 -7251.2560 311.6311 -9079.9620 -7431.0118 300.8676 1100.2097 1105.1616 30155.0101 24.8359 82.5771
ENERGY: 1500000 1.6367 7.0448 3.8690 0.0000 -10890.6106 1588.7943 0.0000 0.0000 1803.0455 -7486.2204 307.2583 -9289.2658 -7434.7639 301.2568 1231.7711 1259.1440 29735.8468 116.2054 174.6935
TCL: Running FEP window  17: Lambda1 0.19999999999999968 Lambda2 0.1499999999999997 [dLambda -0.04999999999999999]
TCL: Setting parameter firsttimestep to 0
TCL: Setting parameter alchLambda to 0.19999999999999968
Info: NONBONDED TABLE R-SQUARED SPACING: 0.0625
Info: NONBONDED TABLE SIZE: 705 POINTS
TCL: Setting parameter alchLambda2 to 0.1499999999999997
Info: NONBONDED TABLE R-SQUARED SPACING: 0.0625
Info: NONBONDED TABLE SIZE: 705 POINTS
TCL: Running for 1500000 steps
ETITLE: TS BOND ANGLE DIHED IMPRP ELECT VDW BOUNDARY MISC KINETIC TOTAL TEMP POTENTIAL TOTALAVG TEMPAVG PRESSURE GPRESSURE VOLUME PRESSAVG GPRESSAVG
ENERGY: 0 1.6367 7.0448 3.8690 0.0000 -10890.6113 1588.1011 0.0000 0.0000 1802.1526 -7487.8071 307.1062 -9289.9597 -7487.8071 307.1062 1165.2743 1251.5634 29735.8468 1165.2743 1251.5634
ENERGY: 300000 2.0207 8.1024 5.2171 0.0000 -10590.2580 1443.3096 0.0000 0.0000 1733.2763 -7398.3319 295.3689 -9131.6082 -7435.9803 302.0429 305.2957 301.3021 30395.7062 276.5278 338.5815
ENERGY: 600000 5.0176 6.7050 4.3288 0.0000 -10765.5749 1491.3593 0.0000 0.0000 1782.7204 -7475.4438 303.7947 -9258.1642 -7433.8128 302.5435 301.9606 312.6309 30168.7037 150.4472 207.7235
ENERGY: 900000 3.7358 12.1543 5.5829 0.0000 -10760.4882 1498.2983 0.0000 0.0000 1753.8924 -7486.8246 298.8821 -9240.7170 -7439.5415 302.7727 571.4240 570.8254 30136.4971 213.7382 260.1075
ENERGY: 1200000 5.0916 13.3302 2.3181 0.0000 -10672.3487 1479.2368 0.0000 0.0000 1786.7033 -7385.6687 304.4734 -9172.3720 -7430.3345 302.9858 553.8882 615.7185 29824.9398 306.2914 353.9323
ENERGY: 1500000 1.8866 11.7099 3.7919 0.0000 -10709.5477 1444.2021 0.0000 0.0000 1807.6587 -7440.2985 308.0444 -9247.9572 -7432.3659 303.2204 -11.5207 26.9809 30124.7428 238.3571 291.2902
TCL: Running FEP window  18: Lambda1 0.1499999999999997 Lambda2 0.09999999999999969 [dLambda -0.05 ]
TCL: Setting parameter firsttimestep to 0
TCL: Setting parameter alchLambda to 0.1499999999999997
Info: NONBONDED TABLE R-SQUARED SPACING: 0.0625
Info: NONBONDED TABLE SIZE: 705 POINTS
TCL: Setting parameter alchLambda2 to 0.09999999999999969
Info: NONBONDED TABLE R-SQUARED SPACING: 0.0625
Info: NONBONDED TABLE SIZE: 705 POINTS
TCL: Running for 1500000 steps
ETITLE: TS BOND ANGLE DIHED IMPRP ELECT VDW BOUNDARY MISC KINETIC TOTAL TEMP POTENTIAL TOTALAVG TEMPAVG PRESSURE GPRESSURE VOLUME PRESSAVG GPRESSAVG
ENERGY: 0 1.8866 11.7099 3.7919 0.0000 -10709.5477 1443.8236 0.0000 0.0000 1806.7962 -7441.5396 307.8975 -9248.3358 -7441.5396 307.8975 -75.3060 20.9607 30124.7428 -75.3060 20.9607
ENERGY: 300000 3.8168 6.0470 5.7220 0.0000 -10648.9278 1442.6400 0.0000 0.0000 1750.6637 -7440.0384 298.3319 -9190.7021 -7439.8903 300.4177 -168.3252 -155.7204 30575.7996 -365.8454 -297.2611
ENERGY: 600000 1.6604 11.9113 2.9839 0.0000 -10695.1043 1471.5201 0.0000 0.0000 1711.0903 -7495.9382 291.5882 -9207.0286 -7444.5239 299.9726 269.0671 333.7733 29975.0640 -124.8921 -59.7151
ENERGY: 900000 1.2267 9.7703 4.1081 0.0000 -10630.8209 1449.2303 0.0000 0.0000 1719.9372 -7446.5483 293.0958 -9166.4856 -7438.8185 298.8856 -36.1951 -6.9731 30549.6292 -134.3131 -76.3151
ENERGY: 1200000 3.8245 10.7488 5.1917 0.0000 -10735.8931 1496.6086 0.0000 0.0000 1752.6990 -7466.8205 298.6787 -9219.5195 -7446.4134 298.7605 361.3227 396.5804 30226.0119 -134.0023 -77.2104
ENERGY: 1500000 1.0848 10.6347 4.5160 0.0000 -10645.7146 1416.1146 0.0000 0.0000 1745.6207 -7467.7438 297.4725 -9213.3645 -7450.5740 298.4550 -118.5737 -59.7008 29762.3292 -145.6109 -88.1979
TCL: Running FEP window  19: Lambda1 0.09999999999999969 Lambda2 0.049999999999999684 [dLambda -0.05 ]
TCL: Setting parameter firsttimestep to 0
TCL: Setting parameter alchLambda to 0.09999999999999969
Info: NONBONDED TABLE R-SQUARED SPACING: 0.0625
Info: NONBONDED TABLE SIZE: 705 POINTS
TCL: Setting parameter alchLambda2 to 0.049999999999999684
Info: NONBONDED TABLE R-SQUARED SPACING: 0.0625
Info: NONBONDED TABLE SIZE: 705 POINTS
TCL: Running for 1500000 steps
ETITLE: TS BOND ANGLE DIHED IMPRP ELECT VDW BOUNDARY MISC KINETIC TOTAL TEMP POTENTIAL TOTALAVG TEMPAVG PRESSURE GPRESSURE VOLUME PRESSAVG GPRESSAVG
ENERGY: 0 1.0848 10.6347 4.5160 0.0000 -10645.7136 1415.6907 0.0000 0.0000 1744.7263 -7469.0611 297.3201 -9213.7874 -7469.0611 297.3201 -148.3153 -66.6774 29762.3292 -148.3153 -66.6774
ENERGY: 300000 2.2827 9.7668 5.2911 0.0000 -10595.9919 1371.0538 0.0000 0.0000 1831.2908 -7376.3068 312.0716 -9207.5976 -7392.8797 305.0224 -388.1229 -384.2367 30329.8364 -276.8922 -237.7489
ENERGY: 600000 1.4462 9.2845 2.9721 0.0000 -10796.2837 1476.8337 0.0000 0.0000 1793.3834 -7512.3637 305.6118 -9305.7471 -7433.7919 303.9392 552.9861 574.5569 29472.4843 34.6807 78.2336
ENERGY: 900000 2.8501 9.4580 3.6008 0.0000 -10695.7025 1429.8465 0.0000 0.0000 1847.3326 -7402.6146 314.8053 -9249.9471 -7427.4068 304.2416 -50.7970 3.2363 30163.3288 -19.3465 24.2031
ENERGY: 1200000 3.1993 11.3105 4.3130 0.0000 -10721.0212 1494.4358 0.0000 0.0000 1754.2824 -7453.4801 298.9485 -9207.7625 -7423.9440 302.8259 456.5503 575.3821 30085.0569 -27.0357 21.4689
ENERGY: 1500000 1.8107 11.4483 3.0704 0.0000 -10601.0128 1422.9286 0.0000 0.0000 1742.7997 -7418.9551 296.9918 -9161.7548 -7422.4658 302.3671 -110.4045 -73.1603 30469.2012 38.7962 90.7240
TCL: Running FEP window  20: Lambda1 0.049999999999999684 Lambda2 0.0    [dLambda -0.049999999999999684]
TCL: Setting parameter firsttimestep to 0
TCL: Setting parameter alchLambda to 0.049999999999999684
Info: NONBONDED TABLE R-SQUARED SPACING: 0.0625
Info: NONBONDED TABLE SIZE: 705 POINTS
TCL: Setting parameter alchLambda2 to 0.0
Info: NONBONDED TABLE R-SQUARED SPACING: 0.0625
Info: NONBONDED TABLE SIZE: 705 POINTS
TCL: Running for 1500000 steps
ETITLE: TS BOND ANGLE DIHED IMPRP ELECT VDW BOUNDARY MISC KINETIC TOTAL TEMP POTENTIAL TOTALAVG TEMPAVG PRESSURE GPRESSURE VOLUME PRESSAVG GPRESSAVG
ENERGY: 0 1.8107 11.4483 3.0704 0.0000 -10601.0114 1422.8538 0.0000 0.0000 1741.9187 -7419.9094 296.8416 -9161.8282 -7419.9094 296.8416 -162.0673 -72.1964 30469.2012 -162.0673 -72.1964
ENERGY: 300000 0.9685 13.1030 3.4066 0.0000 -10529.3962 1377.8784 0.0000 0.0000 1780.1079 -7353.9317 303.3495 -9134.0397 -7421.2932 300.2162 -235.2656 -215.5578 30111.0574 -379.0444 -304.7026
ENERGY: 600000 5.4809 7.4644 3.1751 0.0000 -10516.4976 1298.5690 0.0000 0.0000 1727.9029 -7473.9052 294.4532 -9201.8081 -7416.8708 299.3055 -1378.5658 -1334.1083 30534.2830 -438.4386 -370.7520
ENERGY: 900000 1.0066 7.1695 5.8773 0.0000 -10755.5288 1479.2435 0.0000 0.0000 1781.1185 -7481.1134 303.5217 -9262.2319 -7436.6570 298.7849 -26.1663 -2.4351 30378.5580 -210.5310 -147.1345
ENERGY: 1200000 3.7810 14.7984 2.7323 0.0000 -10674.2708 1469.0754 0.0000 0.0000 1764.9687 -7418.9150 300.7696 -9183.8837 -7433.8756 299.2379 95.6105 216.8661 30064.5184 -160.8715 -96.7682
ENERGY: 1500000 1.7526 11.8462 4.0392 0.0000 -10658.6525 1430.5150 0.0000 0.0000 1724.5262 -7485.9734 293.8778 -9210.4996 -7439.6769 298.3334 339.1367 364.7208 29505.9797 -176.3186 -123.4851
TCL: Exiting due to exit command.
