Info: SIMULATION PARAMETERS:
Info: TIMESTEP               2
Info: NUMBER OF STEPS        0
Info: STEPS PER CYCLE        10
Info: PERIODIC CELL BASIS 1  32.3444 0 0
Info: PERIODIC CELL BASIS 2  0 29.522 0
Info: PERIODIC CELL BASIS 3  0 0 31.997
Info: PERIODIC CELL CENTER   0 0 0
Info: WRAPPING WATERS AROUND PERIODIC BOUNDARIES ON OUTPUT.
Info: WRAPPING ALL CLUSTERS AROUND PERIODIC BOUNDARIES ON OUTPUT.
Info: FIRST LDB TIMESTEP     50
Info: LAST LDB TIMESTEP     -1
Info: HOM BACKGROUND SCALING 1
Info: PME BACKGROUND SCALING 1
Info: MIN ATOMS PER PATCH    40
Info: EMPTY PATCH LOAD       40 ATOMS
Info: VELOCITY FILE          mobley_2099370_equil.vel
Info: CENTER OF MASS MOVING INITIALLY? NO
Info: DIELECTRIC             1
Info: EXCLUDE                SCALED ONE-FOUR
Info: 1-4 ELECTROSTATICS SCALED BY 0.833333
Info: MODIFIED 1-4 VDW PARAMETERS WILL BE USED
Info: DCD FILENAME           mobley_2099370_prod.dcd
Info: DCD FREQUENCY          100000
Info: DCD FIRST STEP         100000
Info: DCD FILE WILL CONTAIN UNIT CELL DATA
Info: XST FILENAME           mobley_2099370_prod.xst
Info: XST FREQUENCY          100000
Info: NO VELOCITY DCD OUTPUT
Info: NO FORCE DCD OUTPUT
Info: OUTPUT FILENAME        mobley_2099370_prod
Info: BINARY OUTPUT FILES WILL BE USED
Info: RESTART FILENAME       mobley_2099370_prod.restart
Info: RESTART FREQUENCY      100000
Info: BINARY RESTART FILES WILL BE USED
Info: CUTOFF                 9
Info: PAIRLIST DISTANCE      11
Info: PAIRLIST SHRINK RATE   0.01
Info: PAIRLIST GROW RATE     0.01
Info: PAIRLIST TRIGGER       0.3
Info: PAIRLISTS PER CYCLE    2
Info: PAIRLISTS ENABLED
Info: MARGIN                 2
Info: HYDROGEN GROUP CUTOFF  2.5
Info: PATCH DIMENSION        15.5
Info: ENERGY OUTPUT STEPS    100000
Info: ENERGY EVALUATION STEPS    100000
Info: OUTPUT ENERGY PRECISION 4
Info: CROSSTERM ENERGY INCLUDED IN DIHEDRAL
Info: TIMING OUTPUT STEPS    1000000
Info: PRESSURE OUTPUT STEPS  100000
Info: ALCHEMICAL FEP ON
Info: FEP CURRENT LAMBDA VALUE     0
Info: FEP COMPARISON LAMBDA VALUE  0.05
Info: FEP INTRA-ALCHEMICAL NON-BONDED INTERACTIONS WILL BE RETAINED
Info: FEP INTRA-ALCHEMICAL BONDED INTERACTIONS WILL BE RETAINED
Info: FEP VDW SHIFTING COEFFICIENT 5
Info: FEP ELEC. ACTIVE FOR ANNIHILATED PARTICLES BETWEEN LAMBDA = 0 AND LAMBDA = 0.5
Info: FEP ELEC. ACTIVE FOR EXNIHILATED PARTICLES BETWEEN LAMBDA = 0.5 AND LAMBDA = 1
Info: FEP VDW ACTIVE FOR ANNIHILATED PARTICLES BETWEEN LAMBDA = 0 AND LAMBDA = 1
Info: FEP VDW ACTIVE FOR EXNIHILATED PARTICLES BETWEEN LAMBDA = 0 AND LAMBDA = 1
Info: FEP BOND ACTIVE FOR ANNIHILATED PARTICLES BETWEEN LAMBDA = 1 AND LAMBDA = 1
Info: FEP BOND ACTIVE FOR EXNIHILATED PARTICLES BETWEEN LAMBDA = 0 AND LAMBDA = 0
Info: LANGEVIN DYNAMICS ACTIVE
Info: LANGEVIN TEMPERATURE   300
Info: LANGEVIN USING BBK INTEGRATOR
Info: LANGEVIN DAMPING COEFFICIENT IS 1 INVERSE PS
Info: LANGEVIN DYNAMICS APPLIED TO HYDROGENS
Info: LANGEVIN PISTON PRESSURE CONTROL ACTIVE
Info:        TARGET PRESSURE IS 1.01325 BAR
Info:     OSCILLATION PERIOD IS 50 FS
Info:             DECAY TIME IS 25 FS
Info:     PISTON TEMPERATURE IS 300 K
Info:       PRESSURE CONTROL IS GROUP-BASED
Info:    INITIAL STRAIN RATE IS 1.02208e-05 1.02208e-05 1.02208e-05
Info:       CELL FLUCTUATION IS ISOTROPIC
Info: PARTICLE MESH EWALD (PME) ACTIVE
Info: PME TOLERANCE               1e-06
Info: PME EWALD COEFFICIENT       0.348832
Info: PME INTERPOLATION ORDER     4
Info: PME GRID DIMENSIONS         36 32 32
Info: PME MAXIMUM GRID SPACING    1
Info: PME CALCULATION WILL BE PERFORMED ON GPU
Info: FULL ELECTROSTATIC EVALUATION FREQUENCY      2
Info: USING VERLET I (r-RESPA) MTS SCHEME.
Info: C1 SPLITTING OF LONG RANGE ELECTROSTATICS
Info: PLACING ATOMS IN PATCHES BY HYDROGEN GROUPS
Info: RIGID BONDS TO HYDROGEN : ALL
Info:         ERROR TOLERANCE : 1e-08
Info:          MAX ITERATIONS : 100
Info: RIGID WATER USING SETTLE ALGORITHM
Info: RANDOM NUMBER SEED     1743999025
Info: USE HYDROGEN BONDS?    NO
Info: Using AMBER format force field!
Info: AMBER PARM FILE        mobley_2099370.prmtop
Info: COORDINATE PDB         mobley_2099370.pdb
Info: Exclusions will be read from PARM file!
Info: SCNB (VDW SCALING)     2
Info: USING ARITHMETIC MEAN TO COMBINE L-J SIGMA PARAMETERS
Info: BINARY COORDINATES     mobley_2099370_equil.coor
Info: SUMMARY OF PARAMETERS:
Info: 12 BONDS
Info: 17 ANGLES
Info:   17 HARMONIC
Info:   0 COSINE-BASED
Info: 12 DIHEDRAL
Info: 0 IMPROPER
Info: 0 CROSSTERM
Info: 0 VDW
Info: 36 VDW_PAIRS
Info: 0 NBTHOLE_PAIRS
Info: To read alchdata from file: mobley_2099370.pdb
Info: To read alchflag data from column: 5
Info: STRUCTURE SUMMARY:
Info: 2976 ATOMS
Info: 2977 BONDS
Info: 55 ANGLES
Info: 96 DIHEDRALS
Info: 0 IMPROPERS
Info: 0 CROSSTERMS
Info: 3105 EXCLUSIONS
Info: 2957 RIGID BONDS
Info: ALCH: 0 ATOMS TO DISAPPEAR IN FINAL STATE
Info: ALCH: 33 ATOMS TO APPEAR IN FINAL STATE
Info: 5971 DEGREES OF FREEDOM
Info: 1000 HYDROGEN GROUPS
Info: 4 ATOMS IN LARGEST HYDROGEN GROUP
Info: 1000 MIGRATION GROUPS
Info: 4 ATOMS IN LARGEST MIGRATION GROUP
Info: TOTAL MASS = 17928 amu
Info: TOTAL CHARGE = -0.000199955 e
Info: MASS DENSITY = 0.974399 g/cm^3
Info: ATOM DENSITY = 0.0974045 atoms/A^3
Info: ADDED 0 IMPLICIT EXCLUSIONS
Info: NONBONDED TABLE R-SQUARED SPACING: 0.0625
Info: NONBONDED TABLE SIZE: 705 POINTS
Info: REMOVING COM VELOCITY -0.0471884 -0.0959445 0.0413283
Info: Use 3D box decompostion in PME FFT.
Info: Updated CUDA force table with 4096 elements.
Info: Updated CUDA LJ table with 8 x 8 elements.
Info: Found 30 unique exclusion lists needing 128 bytes
TCL: Running for 1500000 steps
ETITLE: TS BOND ANGLE DIHED IMPRP ELECT VDW BOUNDARY MISC KINETIC TOTAL TEMP POTENTIAL TOTALAVG TEMPAVG PRESSURE GPRESSURE VOLUME PRESSAVG GPRESSAVG
ENERGY: 0 6.2039 12.4565 11.9123 0.0000 -10796.0974 1516.4025 0.0000 0.0000 1810.6433 -7438.4789 305.1942 -9249.1222 -7438.4789 305.1942 376.5992 478.7395 30552.9895 376.5992 478.7395
ENERGY: 300000 4.7399 10.8117 11.3274 0.0000 -10786.7385 1475.4678 0.0000 0.0000 1802.9754 -7481.4163 303.9017 -9284.3917 -7476.1387 301.8538 297.6528 298.3499 30271.1119 306.5742 383.0767
ENERGY: 600000 6.8831 12.7028 12.4541 0.0000 -10590.3641 1379.3659 0.0000 0.0000 1779.3885 -7399.5698 299.9260 -9178.9583 -7452.1163 302.5499 -825.0632 -671.5091 30861.3578 173.5755 267.4793
ENERGY: 900000 6.7433 13.2243 14.7689 0.0000 -10531.1848 1343.9466 0.0000 0.0000 1769.3344 -7383.1672 298.2313 -9152.5016 -7435.5157 302.1407 -876.1543 -842.4772 30669.3200 -69.4792 22.4438
ENERGY: 1200000 5.1223 9.0560 10.9327 0.0000 -10619.9670 1363.9406 0.0000 0.0000 1723.1431 -7507.7724 290.4455 -9230.9154 -7455.3969 300.5785 -781.2163 -739.0819 30405.1141 -77.6724 0.9581
ENERGY: 1500000 7.3596 14.2811 10.9404 0.0000 -10696.8032 1481.8346 0.0000 0.0000 1751.6044 -7430.7831 295.2428 -9182.3875 -7454.5571 300.9856 505.5537 606.6178 30074.2417 -101.6793 -17.8667
TCL: Running FEP window   2: Lambda1 0.05   Lambda2 0.1    [dLambda 0.05  ]
TCL: Setting parameter firsttimestep to 0
TCL: Setting parameter alchLambda to 0.05
Info: NONBONDED TABLE R-SQUARED SPACING: 0.0625
Info: NONBONDED TABLE SIZE: 705 POINTS
TCL: Setting parameter alchLambda2 to 0.1
Info: NONBONDED TABLE R-SQUARED SPACING: 0.0625
Info: NONBONDED TABLE SIZE: 705 POINTS
TCL: Running for 1500000 steps
ETITLE: TS BOND ANGLE DIHED IMPRP ELECT VDW BOUNDARY MISC KINETIC TOTAL TEMP POTENTIAL TOTALAVG TEMPAVG PRESSURE GPRESSURE VOLUME PRESSAVG GPRESSAVG
ENERGY: 0 7.3597 14.2811 10.9404 0.0000 -10696.8039 1488.1352 0.0000 0.0000 1750.7217 -7425.3658 295.0940 -9176.0874 -7425.3658 295.0940 544.9435 622.9977 30074.2417 544.9435 622.9977
ENERGY: 300000 5.3480 10.7537 11.5076 0.0000 -10593.0596 1394.8428 0.0000 0.0000 1756.1498 -7414.4576 296.0090 -9170.6075 -7445.8028 296.7128 -509.1864 -401.3341 30427.3690 162.0389 235.8788
ENERGY: 600000 6.7551 8.1189 12.2086 0.0000 -10729.2678 1446.2086 0.0000 0.0000 1800.7671 -7455.2095 303.5295 -9255.9766 -7443.9076 298.0932 -271.9584 -142.4729 30416.7511 -65.2062 16.6674
ENERGY: 900000 5.0040 15.0119 11.2560 0.0000 -10785.3467 1469.3868 0.0000 0.0000 1804.4429 -7480.2450 304.1491 -9284.6880 -7452.8150 299.2377 -91.3728 43.7573 30248.9060 -136.2635 -50.4697
ENERGY: 1200000 4.9639 10.8729 12.3109 0.0000 -10676.6573 1421.8081 0.0000 0.0000 1809.4969 -7417.2046 305.0009 -9226.7015 -7460.0402 299.1026 -192.1668 -224.6269 30387.0896 -123.6290 -46.1259
ENERGY: 1500000 11.0094 10.1536 10.3394 0.0000 -10698.8043 1453.6870 0.0000 0.0000 1759.8497 -7453.7652 296.6326 -9213.6149 -7467.6090 297.7579 -43.2414 38.9879 30178.4944 -96.1467 -24.1367
TCL: Running FEP window   3: Lambda1 0.1    Lambda2 0.15000000000000002 [dLambda 0.05000000000000002]
TCL: Setting parameter firsttimestep to 0
TCL: Setting parameter alchLambda to 0.1
Info: NONBONDED TABLE R-SQUARED SPACING: 0.0625
Info: NONBONDED TABLE SIZE: 705 POINTS
TCL: Setting parameter alchLambda2 to 0.15000000000000002
Info: NONBONDED TABLE R-SQUARED SPACING: 0.0625
Info: NONBONDED TABLE SIZE: 705 POINTS
TCL: Running for 1500000 steps
ETITLE: TS BOND ANGLE DIHED IMPRP ELECT VDW BOUNDARY MISC KINETIC TOTAL TEMP POTENTIAL TOTALAVG TEMPAVG PRESSURE GPRESSURE VOLUME PRESSAVG GPRESSAVG
ENERGY: 0 11.0094 10.1536 10.3394 0.0000 -10698.8060 1454.9875 0.0000 0.0000 1758.9669 -7453.3493 296.4838 -9212.3162 -7453.3493 296.4838 -35.3308 51.8404 30178.4944 -35.3308 51.8404
ENERGY: 300000 6.0347 13.3654 13.1424 0.0000 -10625.3113 1373.2216 0.0000 0.0000 1733.8092 -7485.7379 292.2433 -9219.5471 -7505.6458 295.1267 -849.2101 -723.9936 30698.6704 279.9181 362.7756
ENERGY: 600000 6.2282 11.1185 11.8832 0.0000 -10666.5358 1422.4671 0.0000 0.0000 1746.5998 -7468.2390 294.3993 -9214.8388 -7474.1183 297.1492 -256.1861 -198.4670 30457.6974 -67.8669 14.0444
ENERGY: 900000 3.2302 8.9529 10.3788 0.0000 -10675.0567 1408.9793 0.0000 0.0000 1799.3452 -7444.1703 303.2898 -9243.5155 -7454.9814 298.6606 -284.0089 -248.0920 30506.3219 -32.1941 41.0788
ENERGY: 1200000 9.3164 9.3631 12.3222 0.0000 -10618.7795 1422.1161 0.0000 0.0000 1756.7156 -7408.9461 296.1043 -9165.6617 -7452.7000 298.5797 45.4017 102.4300 30411.6472 -43.4563 21.4691
ENERGY: 1500000 6.7968 9.9690 10.7209 0.0000 -10708.1916 1421.1055 0.0000 0.0000 1800.6133 -7458.9862 303.5035 -9259.5995 -7452.9416 298.7553 -130.4639 -110.1520 30749.8899 -48.1706 13.0839
TCL: Running FEP window   4: Lambda1 0.15000000000000002 Lambda2 0.2    [dLambda 0.04999999999999999]
TCL: Setting parameter firsttimestep to 0
TCL: Setting parameter alchLambda to 0.15000000000000002
Info: NONBONDED TABLE R-SQUARED SPACING: 0.0625
Info: NONBONDED TABLE SIZE: 705 POINTS
TCL: Setting parameter alchLambda2 to 0.2
Info: NONBONDED TABLE R-SQUARED SPACING: 0.0625
Info: NONBONDED TABLE SIZE: 705 POINTS
TCL: Running for 1500000 steps
ETITLE: TS BOND ANGLE DIHED IMPRP ELECT VDW BOUNDARY MISC KINETIC TOTAL TEMP POTENTIAL TOTALAVG TEMPAVG PRESSURE GPRESSURE VOLUME PRESSAVG GPRESSAVG
ENERGY: 0 6.7968 9.9690 10.7209 0.0000 -10708.1901 1423.9900 0.0000 0.0000 1799.7337 -7456.9797 303.3553 -9256.7135 -7456.9797 303.3553 -170.0079 -94.6721 30749.8899 -170.0079 -94.6721
ENERGY: 300000 6.7012 10.0181 9.3249 0.0000 -10761.1247 1438.5069 0.0000 0.0000 1793.9049 -7502.6687 302.3728 -9296.5736 -7487.3279 299.7309 -25.1694 -14.7907 30510.5869 -87.8402 -42.4728
ENERGY: 600000 5.8073 8.0902 8.5996 0.0000 -10786.3348 1461.0344 0.0000 0.0000 1742.3093 -7560.4942 293.6761 -9302.8034 -7490.2438 298.6132 -320.9490 -260.7594 30561.6818 -242.1369 -190.6032
ENERGY: 900000 8.4257 10.3467 14.5331 0.0000 -10677.0520 1386.2185 0.0000 0.0000 1823.2290 -7434.2989 307.3156 -9257.5280 -7480.1604 300.4792 -450.9641 -424.8921 30611.2175 -171.0697 -130.1776
ENERGY: 1200000 9.8819 9.3007 18.3140 0.0000 -10691.5968 1450.2816 0.0000 0.0000 1779.8822 -7423.9362 300.0092 -9203.8185 -7470.6450 301.1098 87.0886 171.7509 30442.6330 -163.0793 -116.2782
ENERGY: 1500000 8.4425 13.5326 16.6947 0.0000 -10636.9902 1398.4678 0.0000 0.0000 1785.3715 -7414.4812 300.9345 -9199.8527 -7457.5427 301.2087 -507.0032 -412.8319 30496.5969 -189.6088 -140.7602
TCL: Running FEP window   5: Lambda1 0.2    Lambda2 0.25   [dLambda 0.04999999999999999]
TCL: Setting parameter firsttimestep to 0
TCL: Setting parameter alchLambda to 0.2
Info: NONBONDED TABLE R-SQUARED SPACING: 0.0625
Info: NONBONDED TABLE SIZE: 705 POINTS
TCL: Setting parameter alchLambda2 to 0.25
Info: NONBONDED TABLE R-SQUARED SPACING: 0.0625
Info: NONBONDED TABLE SIZE: 705 POINTS
TCL: Running for 1500000 steps
ETITLE: TS BOND ANGLE DIHED IMPRP ELECT VDW BOUNDARY MISC KINETIC TOTAL TEMP POTENTIAL TOTALAVG TEMPAVG PRESSURE GPRESSURE VOLUME PRESSAVG GPRESSAVG
ENERGY: 0 8.4425 13.5326 16.6947 0.0000 -10636.9913 1399.9013 0.0000 0.0000 1784.4729 -7413.9474 300.7830 -9198.4203 -7413.9474 300.7830 -495.0508 -406.0859 30496.5969 -495.0508 -406.0859
ENERGY: 300000 9.4904 13.7615 16.5116 0.0000 -10582.0186 1345.7953 0.0000 0.0000 1773.2960 -7423.1638 298.8991 -9196.4598 -7431.1201 302.2363 -656.1516 -590.4937 30213.7225 -282.1623 -221.7898
ENERGY: 600000 7.7802 17.7538 12.8260 0.0000 -10800.3435 1490.3567 0.0000 0.0000 1769.6854 -7501.9414 298.2905 -9271.6269 -7434.8325 302.1816 396.4480 399.1928 30371.5269 -182.4665 -132.8358
ENERGY: 900000 5.8373 8.8205 15.2497 0.0000 -10890.8871 1586.8265 0.0000 0.0000 1786.7116 -7487.4414 301.1603 -9274.1530 -7436.1560 302.6694 1196.3679 1237.5760 30185.0607 15.3769 66.1433
ENERGY: 1200000 6.4844 13.0984 15.2240 0.0000 -10634.5798 1378.4918 0.0000 0.0000 1743.8366 -7477.4445 293.9335 -9221.2811 -7437.5561 301.7080 -632.8034 -560.9845 30657.5529 8.4020 58.9522
ENERGY: 1500000 6.8746 16.5258 16.6278 0.0000 -10487.7155 1323.0917 0.0000 0.0000 1744.0016 -7380.5940 293.9613 -9124.5956 -7434.7055 300.9142 -579.4761 -561.3933 30170.2120 -39.9611 10.4303
TCL: Running FEP window   6: Lambda1 0.25   Lambda2 0.3    [dLambda 0.04999999999999999]
TCL: Setting parameter firsttimestep to 0
TCL: Setting parameter alchLambda to 0.25
Info: NONBONDED TABLE R-SQUARED SPACING: 0.0625
Info: NONBONDED TABLE SIZE: 705 POINTS
TCL: Setting parameter alchLambda2 to 0.3
Info: NONBONDED TABLE R-SQUARED SPACING: 0.0625
Info: NONBONDED TABLE SIZE: 705 POINTS
TCL: Running for 1500000 steps
ETITLE: TS BOND ANGLE DIHED IMPRP ELECT VDW BOUNDARY MISC KINETIC TOTAL TEMP POTENTIAL TOTALAVG TEMPAVG PRESSURE GPRESSURE VOLUME PRESSAVG GPRESSAVG
ENERGY: 0 6.8746 16.5258 16.6278 0.0000 -10487.7163 1323.4995 0.0000 0.0000 1743.1030 -7381.0856 293.8099 -9124.1886 -7381.0856 293.8099 -627.3374 -553.3296 30170.2120 -627.3374 -553.3296
ENERGY: 300000 8.6525 16.8628 21.7324 0.0000 -10575.2866 1390.9961 0.0000 0.0000 1801.3251 -7335.7177 303.6235 -9137.0428 -7378.8290 302.5267 -349.1155 -323.8685 30987.9281 -477.0620 -418.6928
ENERGY: 600000 3.7165 13.5630 15.8850 0.0000 -10558.7348 1377.0916 0.0000 0.0000 1798.6604 -7349.8182 303.1744 -9148.4786 -7392.2012 301.9843 -388.5288 -384.1810 30852.4906 -394.4446 -332.9430
ENERGY: 900000 10.4098 12.2750 15.5965 0.0000 -10665.7899 1474.2688 0.0000 0.0000 1685.9323 -7467.3075 284.1734 -9153.2398 -7404.8677 300.6572 109.2934 233.3303 30735.2156 -178.1381 -113.3290
ENERGY: 1200000 5.1920 14.3466 20.9878 0.0000 -10589.0326 1306.0341 0.0000 0.0000 1806.2417 -7436.2304 304.4522 -9242.4721 -7411.6009 300.5354 -1278.8157 -1206.7267 30569.8668 -271.2541 -213.2734
ENERGY: 1500000 6.1555 10.7357 14.9697 0.0000 -10804.5198 1481.7441 0.0000 0.0000 1780.8927 -7510.0222 300.1795 -9290.9149 -7424.4417 299.6255 293.3980 357.5621 30423.8654 -194.3636 -136.6869
TCL: Running FEP window   7: Lambda1 0.3    Lambda2 0.35   [dLambda 0.04999999999999999]
TCL: Setting parameter firsttimestep to 0
TCL: Setting parameter alchLambda to 0.3
Info: NONBONDED TABLE R-SQUARED SPACING: 0.0625
Info: NONBONDED TABLE SIZE: 705 POINTS
TCL: Setting parameter alchLambda2 to 0.35
Info: NONBONDED TABLE R-SQUARED SPACING: 0.0625
Info: NONBONDED TABLE SIZE: 705 POINTS
TCL: Running for 1500000 steps
ETITLE: TS BOND ANGLE DIHED IMPRP ELECT VDW BOUNDARY MISC KINETIC TOTAL TEMP POTENTIAL TOTALAVG TEMPAVG PRESSURE GPRESSURE VOLUME PRESSAVG GPRESSAVG
ENERGY: 0 6.1555 10.7357 14.9697 0.0000 -10804.5191 1481.7793 0.0000 0.0000 1780.0021 -7510.8767 300.0294 -9290.8789 -7510.8767 300.0294 297.6967 368.0091 30423.8654 297.6967 368.0091
ENERGY: 300000 9.5349 13.7282 21.3575 0.0000 -10841.9036 1531.3223 0.0000 0.0000 1754.6617 -7511.2990 295.7581 -9265.9607 -7489.7622 297.2161 762.5556 813.9687 30069.0769 477.4909 542.4010
ENERGY: 600000 6.6641 14.0490 16.6162 0.0000 -10873.7712 1546.9862 0.0000 0.0000 1788.9726 -7500.4830 301.5414 -9289.4556 -7491.4361 296.2242 1056.8413 1085.7734 29940.5036 372.3797 433.8822
ENERGY: 900000 6.7110 20.0632 15.1462 0.0000 -10744.0796 1516.1159 0.0000 0.0000 1741.6238 -7444.4196 293.5605 -9186.0434 -7479.0730 295.8566 317.4025 389.7927 31090.4401 160.3019 215.5401
ENERGY: 1200000 7.7482 14.9091 14.8246 0.0000 -10558.5083 1309.1685 0.0000 0.0000 1783.2279 -7428.6301 300.5731 -9211.8580 -7468.9317 296.1048 -1233.2935 -1122.6074 31286.3713 21.3860 83.9710
ENERGY: 1500000 3.6935 10.4522 12.7959 0.0000 -10796.1687 1535.4488 0.0000 0.0000 1742.1758 -7491.6026 293.6536 -9233.7784 -7463.6166 296.2709 1035.0676 1036.9897 30061.6848 80.4189 143.7131
TCL: Running FEP window   8: Lambda1 0.35   Lambda2 0.39999999999999997 [dLambda 0.04999999999999999]
TCL: Setting parameter firsttimestep to 0
TCL: Setting parameter alchLambda to 0.35
Info: NONBONDED TABLE R-SQUARED SPACING: 0.0625
Info: NONBONDED TABLE SIZE: 705 POINTS
TCL: Setting parameter alchLambda2 to 0.39999999999999997
Info: NONBONDED TABLE R-SQUARED SPACING: 0.0625
Info: NONBONDED TABLE SIZE: 705 POINTS
TCL: Running for 1500000 steps
ETITLE: TS BOND ANGLE DIHED IMPRP ELECT VDW BOUNDARY MISC KINETIC TOTAL TEMP POTENTIAL TOTALAVG TEMPAVG PRESSURE GPRESSURE VOLUME PRESSAVG GPRESSAVG
ENERGY: 0 3.6935 10.4522 12.7959 0.0000 -10796.1678 1536.0632 0.0000 0.0000 1741.2676 -7491.8954 293.5005 -9233.1630 -7491.8954 293.5005 977.6025 1051.5406 30061.6848 977.6025 1051.5406
ENERGY: 300000 7.0121 17.6147 15.7231 0.0000 -10866.8481 1508.7598 0.0000 0.0000 1763.4017 -7554.3367 297.2313 -9317.7383 -7495.6618 298.3078 359.6761 430.8986 30279.3484 390.6341 462.9498
ENERGY: 600000 4.6450 15.3021 12.3908 0.0000 -10646.0288 1386.1132 0.0000 0.0000 1799.3374 -7428.2403 303.2885 -9227.5777 -7485.5134 298.1268 -709.0272 -549.0396 30974.1122 219.3388 309.7550
ENERGY: 900000 4.0612 8.5364 14.1221 0.0000 -10681.4839 1418.0187 0.0000 0.0000 1753.7646 -7482.9810 295.6069 -9236.7456 -7480.5395 298.1426 -116.0018 -85.2801 30612.0300 132.3962 214.0390
ENERGY: 1200000 6.0891 14.0461 15.5368 0.0000 -10722.3291 1541.7562 0.0000 0.0000 1758.3917 -7386.5090 296.3869 -9144.9008 -7479.3110 298.6825 1342.0989 1400.3591 30405.6666 90.7310 164.7277
ENERGY: 1500000 7.7805 12.4140 14.8812 0.0000 -10718.2339 1414.2433 0.0000 0.0000 1793.8420 -7475.0730 302.3622 -9268.9149 -7472.5749 298.9770 -778.0107 -697.9349 30977.3732 -4.2200 71.2737
TCL: Running FEP window   9: Lambda1 0.39999999999999997 Lambda2 0.44999999999999996 [dLambda 0.04999999999999999]
TCL: Setting parameter firsttimestep to 0
TCL: Setting parameter alchLambda to 0.39999999999999997
Info: NONBONDED TABLE R-SQUARED SPACING: 0.0625
Info: NONBONDED TABLE SIZE: 705 POINTS
TCL: Setting parameter alchLambda2 to 0.44999999999999996
Info: NONBONDED TABLE R-SQUARED SPACING: 0.0625
Info: NONBONDED TABLE SIZE: 705 POINTS
TCL: Running for 1500000 steps
ETITLE: TS BOND ANGLE DIHED IMPRP ELECT VDW BOUNDARY MISC KINETIC TOTAL TEMP POTENTIAL TOTALAVG TEMPAVG PRESSURE GPRESSURE VOLUME PRESSAVG GPRESSAVG
ENERGY: 0 7.7805 12.4140 14.8812 0.0000 -10718.2339 1414.0334 0.0000 0.0000 1792.9295 -7476.1954 302.2084 -9269.1249 -7476.1954 302.2084 -772.2136 -690.3104 30977.3732 -772.2136 -690.3104
ENERGY: 300000 6.9227 11.9481 20.2385 0.0000 -10694.5214 1357.6457 0.0000 0.0000 1835.2998 -7462.4666 309.3501 -9297.7664 -7459.7103 302.5879 -774.0840 -737.6476 30435.8690 -707.6178 -642.0051
ENERGY: 600000 9.4401 14.2946 19.1289 0.0000 -10679.7959 1403.4911 0.0000 0.0000 1766.9264 -7466.5148 297.8254 -9233.4412 -7460.9072 300.5864 -358.8628 -294.6754 30504.9872 -416.1044 -350.8006
ENERGY: 900000 8.4175 13.6281 16.9181 0.0000 -10664.3034 1393.9640 0.0000 0.0000 1787.6729 -7443.7028 301.3224 -9231.3757 -7463.7225 299.6263 -420.1981 -317.3427 30455.3923 -177.3157 -108.9511
ENERGY: 1200000 6.7338 15.4963 13.2255 0.0000 -10756.1361 1480.8899 0.0000 0.0000 1771.0397 -7468.7509 298.5188 -9239.7906 -7463.1348 299.8221 425.1253 441.8819 30640.2249 -150.3926 -88.9598
ENERGY: 1500000 6.4860 15.4359 16.3793 0.0000 -10620.7986 1397.0776 0.0000 0.0000 1801.4322 -7383.9876 303.6416 -9185.4198 -7459.0622 299.8228 -303.6948 -250.6013 30769.0260 -197.9965 -136.3290
TCL: Running FEP window  10: Lambda1 0.44999999999999996 Lambda2 0.49999999999999994 [dLambda 0.04999999999999999]
TCL: Setting parameter firsttimestep to 0
TCL: Setting parameter alchLambda to 0.44999999999999996
Info: NONBONDED TABLE R-SQUARED SPACING: 0.0625
Info: NONBONDED TABLE SIZE: 705 POINTS
TCL: Setting parameter alchLambda2 to 0.49999999999999994
Info: NONBONDED TABLE R-SQUARED SPACING: 0.0625
Info: NONBONDED TABLE SIZE: 705 POINTS
TCL: Running for 1500000 steps
ETITLE: TS BOND ANGLE DIHED IMPRP ELECT VDW BOUNDARY MISC KINETIC TOTAL TEMP POTENTIAL TOTALAVG TEMPAVG PRESSURE GPRESSURE VOLUME PRESSAVG GPRESSAVG
ENERGY: 0 6.4860 15.4359 16.3793 0.0000 -10620.7990 1396.2706 0.0000 0.0000 1800.5793 -7385.6479 303.4978 -9186.2272 -7385.6479 303.4978 -324.7877 -246.9144 30769.0260 -324.7877 -246.9144
ENERGY: 300000 5.2276 19.2285 14.3004 0.0000 -10703.3561 1405.9234 0.0000 0.0000 1795.0846 -7463.5917 302.5716 -9258.6762 -7411.0768 302.4761 -245.0711 -178.0384 30220.9259 131.6452 182.2415
ENERGY: 600000 9.3232 13.0132 15.1600 0.0000 -10653.8123 1436.3492 0.0000 0.0000 1854.9325 -7325.0342 312.6594 -9179.9667 -7424.7069 302.8085 -81.3727 0.8795 30625.4613 135.7061 186.9156
ENERGY: 900000 7.9961 16.9126 13.3672 0.0000 -10677.6814 1387.4612 0.0000 0.0000 1772.3282 -7479.6160 298.7359 -9251.9442 -7443.5974 300.7373 -60.2374 11.1168 30370.1967 35.6953 87.6979
ENERGY: 1200000 10.1275 16.2252 15.6289 0.0000 -10780.8065 1461.1009 0.0000 0.0000 1758.1807 -7519.5434 296.3513 -9277.7241 -7453.9635 300.0250 117.4575 270.5680 30181.2196 111.8757 174.7886
ENERGY: 1500000 9.2014 8.1131 12.5966 0.0000 -10745.6111 1461.1304 0.0000 0.0000 1714.3757 -7540.1939 288.9677 -9254.5696 -7466.2921 299.1762 -60.8638 26.9958 30744.8948 131.8038 195.3170
TCL: Running FEP window  11: Lambda1 0.49999999999999994 Lambda2 0.5499999999999999 [dLambda 0.04999999999999999]
TCL: Setting parameter firsttimestep to 0
TCL: Setting parameter alchLambda to 0.49999999999999994
Info: NONBONDED TABLE R-SQUARED SPACING: 0.0625
Info: NONBONDED TABLE SIZE: 705 POINTS
TCL: Setting parameter alchLambda2 to 0.5499999999999999
Info: NONBONDED TABLE R-SQUARED SPACING: 0.0625
Info: NONBONDED TABLE SIZE: 705 POINTS
TCL: Running for 1500000 steps
ETITLE: TS BOND ANGLE DIHED IMPRP ELECT VDW BOUNDARY MISC KINETIC TOTAL TEMP POTENTIAL TOTALAVG TEMPAVG PRESSURE GPRESSURE VOLUME PRESSAVG GPRESSAVG
ENERGY: 0 9.2014 8.1131 12.5966 0.0000 -10745.6104 1461.1148 0.0000 0.0000 1713.5057 -7541.0788 288.8211 -9254.5845 -7541.0788 288.8211 -56.5949 39.5234 30744.8948 -56.5949 39.5234
ENERGY: 300000 7.5511 12.6856 13.4535 0.0000 -10773.2962 1475.8402 0.0000 0.0000 1815.5604 -7448.2054 306.0230 -9263.7658 -7462.4892 301.6906 90.4580 128.1280 30626.4375 267.7101 316.8347
ENERGY: 600000 5.5567 12.2203 18.4224 0.0000 -10659.6037 1411.3178 0.0000 0.0000 1795.5872 -7416.4993 302.6564 -9212.0865 -7459.5935 300.3514 -246.9160 -195.2926 30446.5655 96.5911 148.0564
ENERGY: 900000 3.7203 13.9080 15.6135 0.0000 -10644.3373 1378.0078 0.0000 0.0000 1796.8350 -7436.2526 302.8667 -9233.0877 -7461.9780 300.9751 -489.8808 -417.0428 30740.5308 -53.2040 0.7454
ENERGY: 1200000 8.6492 17.1137 17.9052 0.0000 -10755.5617 1444.4324 0.0000 0.0000 1757.7357 -7509.7255 296.2763 -9267.4613 -7470.9969 299.9885 218.6134 217.3729 30353.9482 -11.0314 40.5560
ENERGY: 1500000 5.8137 17.2268 17.3846 0.0000 -10607.9188 1373.0630 0.0000 0.0000 1830.2584 -7364.1723 308.5004 -9194.4307 -7464.2699 300.8440 -340.5507 -267.4232 30968.9737 -48.9390 7.8360
TCL: Running FEP window  12: Lambda1 0.5499999999999999 Lambda2 0.6    [dLambda 0.050000000000000044]
TCL: Setting parameter firsttimestep to 0
TCL: Setting parameter alchLambda to 0.5499999999999999
Info: NONBONDED TABLE R-SQUARED SPACING: 0.0625
Info: NONBONDED TABLE SIZE: 705 POINTS
TCL: Setting parameter alchLambda2 to 0.6
Info: NONBONDED TABLE R-SQUARED SPACING: 0.0625
Info: NONBONDED TABLE SIZE: 705 POINTS
TCL: Running for 1500000 steps
ETITLE: TS BOND ANGLE DIHED IMPRP ELECT VDW BOUNDARY MISC KINETIC TOTAL TEMP POTENTIAL TOTALAVG TEMPAVG PRESSURE GPRESSURE VOLUME PRESSAVG GPRESSAVG
ENERGY: 0 5.8137 17.2268 17.3846 0.0000 -10608.8313 1373.3819 0.0000 0.0000 1829.3933 -7365.6309 308.3546 -9195.0242 -7365.6309 308.3546 -331.4532 -255.9977 30968.9737 -331.4532 -255.9977
ENERGY: 300000 4.8511 13.4911 20.0731 0.0000 -10660.1253 1393.4126 0.0000 0.0000 1789.1340 -7439.1634 301.5686 -9228.2974 -7414.2505 303.4167 -385.9468 -354.9164 30828.3868 -189.4470 -129.4538
ENERGY: 600000 5.0959 11.3295 17.5982 0.0000 -10688.4378 1399.2723 0.0000 0.0000 1836.0239 -7419.1179 309.4722 -9255.1419 -7447.8147 300.9141 -217.6542 -219.0066 30696.7347 110.5993 158.6774
ENERGY: 900000 2.8918 8.9804 18.0437 0.0000 -10650.7745 1426.2848 0.0000 0.0000 1814.1414 -7380.4324 305.7838 -9194.5738 -7444.8952 301.8007 -175.5647 -90.9289 30864.0328 22.0400 74.0994
ENERGY: 1200000 8.7797 14.0383 18.6337 0.0000 -10709.3462 1449.3187 0.0000 0.0000 1793.1160 -7425.4599 302.2398 -9218.5759 -7446.6865 301.5693 -293.7122 -158.8254 30782.7719 38.1142 93.8392
ENERGY: 1500000 9.0276 9.2658 12.0503 0.0000 -10724.9630 1476.7339 0.0000 0.0000 1765.4603 -7452.4251 297.5783 -9217.8854 -7444.8099 301.1004 225.5349 315.6737 30618.3601 6.6739 67.5969
TCL: Running FEP window  13: Lambda1 0.6    Lambda2 0.65   [dLambda 0.050000000000000044]
TCL: Setting parameter firsttimestep to 0
TCL: Setting parameter alchLambda to 0.6
Info: NONBONDED TABLE R-SQUARED SPACING: 0.0625
Info: NONBONDED TABLE SIZE: 705 POINTS
TCL: Setting parameter alchLambda2 to 0.65
Info: NONBONDED TABLE R-SQUARED SPACING: 0.0625
Info: NONBONDED TABLE SIZE: 705 POINTS
TCL: Running for 1500000 steps
ETITLE: TS BOND ANGLE DIHED IMPRP ELECT VDW BOUNDARY MISC KINETIC TOTAL TEMP POTENTIAL TOTALAVG TEMPAVG PRESSURE GPRESSURE VOLUME PRESSAVG GPRESSAVG
ENERGY: 0 9.0276 9.2658 12.0503 0.0000 -10725.6449 1476.6802 0.0000 0.0000 1764.5609 -7454.0601 297.4267 -9218.6209 -7454.0601 297.4267 221.8901 328.3482 30618.3601 221.8901 328.3482
ENERGY: 300000 9.5664 13.2338 17.5970 0.0000 -10736.2981 1402.8253 0.0000 0.0000 1709.1933 -7583.8823 288.0942 -9293.0756 -7511.1248 295.6754 -473.4369 -387.9693 30754.7783 -45.5987 28.0427
ENERGY: 600000 7.6615 8.6925 15.6948 0.0000 -10721.9644 1407.8242 0.0000 0.0000 1792.2243 -7489.8670 302.0895 -9282.0913 -7465.0131 300.8508 -371.7989 -373.0612 30509.5405 14.1538 82.5245
ENERGY: 900000 10.6832 10.6223 13.4583 0.0000 -10775.0901 1526.6274 0.0000 0.0000 1764.2991 -7449.3998 297.3826 -9213.6989 -7469.5638 299.1401 524.3486 491.3932 30696.6576 29.4013 83.1872
ENERGY: 1200000 4.8952 22.2771 20.4683 0.0000 -10659.5879 1414.9964 0.0000 0.0000 1801.7474 -7395.2036 303.6947 -9196.9509 -7460.0001 299.1504 -40.7360 -12.5747 30970.8618 80.9006 130.1202
ENERGY: 1500000 8.1307 9.1216 14.0729 0.0000 -10674.6587 1489.1185 0.0000 0.0000 1858.2540 -7295.9611 313.2192 -9154.2151 -7453.7434 300.1648 459.2733 497.2399 30800.7285 57.1263 104.6047
TCL: Running FEP window  14: Lambda1 0.65   Lambda2 0.7000000000000001 [dLambda 0.050000000000000044]
TCL: Setting parameter firsttimestep to 0
TCL: Setting parameter alchLambda to 0.65
Info: NONBONDED TABLE R-SQUARED SPACING: 0.0625
Info: NONBONDED TABLE SIZE: 705 POINTS
TCL: Setting parameter alchLambda2 to 0.7000000000000001
Info: NONBONDED TABLE R-SQUARED SPACING: 0.0625
Info: NONBONDED TABLE SIZE: 705 POINTS
TCL: Running for 1500000 steps
ETITLE: TS BOND ANGLE DIHED IMPRP ELECT VDW BOUNDARY MISC KINETIC TOTAL TEMP POTENTIAL TOTALAVG TEMPAVG PRESSURE GPRESSURE VOLUME PRESSAVG GPRESSAVG
ENERGY: 0 8.1307 9.1216 14.0729 0.0000 -10676.3208 1489.7334 0.0000 0.0000 1857.3619 -7297.9003 313.0688 -9155.2622 -7297.9003 313.0688 426.0939 510.6891 30800.7285 426.0939 510.6891
ENERGY: 300000 4.6240 18.8724 17.4104 0.0000 -10872.1092 1479.1978 0.0000 0.0000 1828.6120 -7523.3926 308.2229 -9352.0046 -7441.0496 305.6732 171.9459 216.8656 30492.2841 -27.6356 52.6511
ENERGY: 600000 5.1215 12.1795 16.0362 0.0000 -10596.1211 1326.7183 0.0000 0.0000 1782.8481 -7453.2175 300.5091 -9236.0656 -7461.8473 302.8728 -784.7310 -690.2862 30534.8522 151.7284 229.0011
ENERGY: 900000 4.1316 14.2983 14.7098 0.0000 -10621.1235 1414.3838 0.0000 0.0000 1779.5564 -7394.0437 299.9543 -9173.6001 -7462.0397 301.9906 -98.4428 23.2248 30606.1365 216.7253 295.5405
ENERGY: 1200000 6.4878 7.9394 11.4849 0.0000 -10733.9797 1411.5627 0.0000 0.0000 1708.4292 -7588.0757 287.9654 -9296.5049 -7475.2914 299.5600 -239.0095 -177.3690 30682.0396 165.2524 238.3770
ENERGY: 1500000 7.1320 10.8376 15.5375 0.0000 -10585.8688 1355.9145 0.0000 0.0000 1786.7043 -7409.7428 301.1591 -9196.4471 -7470.5453 300.1917 -656.5519 -641.4967 30838.3867 65.9961 132.0449
TCL: Running FEP window  15: Lambda1 0.7000000000000001 Lambda2 0.7500000000000001 [dLambda 0.050000000000000044]
TCL: Setting parameter firsttimestep to 0
TCL: Setting parameter alchLambda to 0.7000000000000001
Info: NONBONDED TABLE R-SQUARED SPACING: 0.0625
Info: NONBONDED TABLE SIZE: 705 POINTS
TCL: Setting parameter alchLambda2 to 0.7500000000000001
Info: NONBONDED TABLE R-SQUARED SPACING: 0.0625
Info: NONBONDED TABLE SIZE: 705 POINTS
TCL: Running for 1500000 steps
ETITLE: TS BOND ANGLE DIHED IMPRP ELECT VDW BOUNDARY MISC KINETIC TOTAL TEMP POTENTIAL TOTALAVG TEMPAVG PRESSURE GPRESSURE VOLUME PRESSAVG GPRESSAVG
ENERGY: 0 7.1320 10.8376 15.5376 0.0000 -10589.7978 1356.0886 0.0000 0.0000 1785.8641 -7414.3379 301.0175 -9200.2020 -7414.3379 301.0175 -708.8778 -634.5728 30838.3867 -708.8778 -634.5728
ENERGY: 300000 5.5406 9.9978 15.3059 0.0000 -10728.6616 1531.3001 0.0000 0.0000 1821.5261 -7344.9910 307.0285 -9166.5171 -7416.3900 303.6613 1161.2633 1217.5243 30475.9695 14.8896 75.9197
ENERGY: 600000 7.7928 11.1195 18.0236 0.0000 -10697.8529 1426.3664 0.0000 0.0000 1840.4168 -7394.1337 310.2126 -9234.5505 -7424.1444 303.6147 113.4177 170.5693 30706.8907 -71.9461 6.2754
ENERGY: 900000 8.6425 17.3854 16.5821 0.0000 -10762.9890 1467.3798 0.0000 0.0000 1795.3455 -7457.6538 302.6156 -9252.9993 -7425.2081 304.6462 381.9052 464.7477 30444.7772 10.9505 83.6141
ENERGY: 1200000 10.1652 13.2580 14.6461 0.0000 -10580.2021 1414.9335 0.0000 0.0000 1815.1016 -7312.0978 305.9456 -9127.1993 -7420.2824 303.9073 -280.1537 -229.0326 31617.5774 -78.5404 -9.8970
ENERGY: 1500000 5.5506 12.0133 14.0667 0.0000 -10839.7316 1504.3637 0.0000 0.0000 1759.6603 -7544.0771 296.6007 -9303.7374 -7429.7323 303.2478 476.5219 572.4293 30205.5548 -26.0335 40.0064
TCL: Running FEP window  16: Lambda1 0.7500000000000001 Lambda2 0.8000000000000002 [dLambda 0.050000000000000044]
TCL: Setting parameter firsttimestep to 0
TCL: Setting parameter alchLambda to 0.7500000000000001
Info: NONBONDED TABLE R-SQUARED SPACING: 0.0625
Info: NONBONDED TABLE SIZE: 705 POINTS
TCL: Setting parameter alchLambda2 to 0.8000000000000002
Info: NONBONDED TABLE R-SQUARED SPACING: 0.0625
Info: NONBONDED TABLE SIZE: 705 POINTS
TCL: Running for 1500000 steps
ETITLE: TS BOND ANGLE DIHED IMPRP ELECT VDW BOUNDARY MISC KINETIC TOTAL TEMP POTENTIAL TOTALAVG TEMPAVG PRESSURE GPRESSURE VOLUME PRESSAVG GPRESSAVG
ENERGY: 0 5.5506 12.0133 14.0667 0.0000 -10843.4257 1507.0350 0.0000 0.0000 1758.7780 -7545.9821 296.4520 -9304.7601 -7545.9821 296.4520 529.2283 608.2623 30205.5548 529.2283 608.2623
ENERGY: 300000 11.1607 9.3010 12.4829 0.0000 -10660.2272 1370.3902 0.0000 0.0000 1788.2816 -7468.6110 301.4250 -9256.8925 -7488.8967 303.2533 -688.1598 -655.5897 30472.2465 -22.4014 29.0030
ENERGY: 600000 13.3472 9.5295 19.8512 0.0000 -10668.3182 1385.3144 0.0000 0.0000 1767.3437 -7472.9323 297.8958 -9240.2759 -7488.4430 301.9000 -820.8384 -756.8932 31113.2721 -282.6984 -218.3286
ENERGY: 900000 9.7820 19.4052 13.8322 0.0000 -10822.7803 1520.1158 0.0000 0.0000 1748.5507 -7511.0944 294.7281 -9259.6451 -7488.4193 300.4970 565.6917 547.5382 30759.0139 5.9801 61.5452
ENERGY: 1200000 4.7042 10.5421 13.8769 0.0000 -10822.0252 1506.0830 0.0000 0.0000 1839.5008 -7447.3181 310.0583 -9286.8189 -7480.2835 301.6543 381.4208 447.5501 30629.0129 -24.3911 31.2044
ENERGY: 1500000 11.4133 11.6243 18.5432 0.0000 -10646.3700 1350.6430 0.0000 0.0000 1773.6929 -7480.4532 298.9660 -9254.1461 -7477.7796 301.6496 -812.6340 -743.1920 30497.2770 -102.0418 -43.2458
TCL: Running FEP window  17: Lambda1 0.8000000000000002 Lambda2 0.8500000000000002 [dLambda 0.050000000000000044]
TCL: Setting parameter firsttimestep to 0
TCL: Setting parameter alchLambda to 0.8000000000000002
Info: NONBONDED TABLE R-SQUARED SPACING: 0.0625
Info: NONBONDED TABLE SIZE: 705 POINTS
TCL: Setting parameter alchLambda2 to 0.8500000000000002
Info: NONBONDED TABLE R-SQUARED SPACING: 0.0625
Info: NONBONDED TABLE SIZE: 705 POINTS
TCL: Running for 1500000 steps
ETITLE: TS BOND ANGLE DIHED IMPRP ELECT VDW BOUNDARY MISC KINETIC TOTAL TEMP POTENTIAL TOTALAVG TEMPAVG PRESSURE GPRESSURE VOLUME PRESSAVG GPRESSAVG
ENERGY: 0 11.4133 11.6243 18.5432 0.0000 -10648.5403 1350.3921 0.0000 0.0000 1772.8330 -7483.7342 298.8210 -9256.5673 -7483.7342 298.8210 -817.1289 -734.5215 30497.2770 -817.1289 -734.5215
ENERGY: 300000 10.0992 11.3434 13.8405 0.0000 -10745.0856 1450.8894 0.0000 0.0000 1781.4498 -7477.4633 300.2734 -9258.9131 -7462.4553 300.8855 -15.9960 8.8256 31099.0318 117.1128 186.1125
ENERGY: 600000 8.3179 19.3139 11.0370 0.0000 -10605.6220 1368.5552 0.0000 0.0000 1755.0751 -7443.3229 295.8278 -9198.3980 -7455.8711 300.4913 -527.5825 -477.0604 30641.5898 -139.4468 -79.7196
ENERGY: 900000 9.7964 11.3050 14.1862 0.0000 -10689.8173 1390.3019 0.0000 0.0000 1784.5159 -7479.7119 300.7902 -9264.2278 -7455.0919 301.0058 -221.6740 -106.0415 30173.6866 -71.8165 -14.3001
ENERGY: 1200000 4.7250 12.4501 16.0519 0.0000 -10744.6150 1448.2486 0.0000 0.0000 1794.6510 -7468.4884 302.4986 -9263.1394 -7457.1616 301.2647 -158.5112 -119.8920 30909.0866 -37.2208 17.4790
ENERGY: 1500000 4.4801 12.7805 15.0620 0.0000 -10765.2371 1393.6419 0.0000 0.0000 1863.8601 -7475.4124 314.1642 -9339.2726 -7464.7548 301.9618 -68.1431 -17.6002 29919.7061 -6.7556 52.1573
TCL: Running FEP window  18: Lambda1 0.8500000000000002 Lambda2 0.9000000000000002 [dLambda 0.050000000000000044]
TCL: Setting parameter firsttimestep to 0
TCL: Setting parameter alchLambda to 0.8500000000000002
Info: NONBONDED TABLE R-SQUARED SPACING: 0.0625
Info: NONBONDED TABLE SIZE: 705 POINTS
TCL: Setting parameter alchLambda2 to 0.9000000000000002
Info: NONBONDED TABLE R-SQUARED SPACING: 0.0625
Info: NONBONDED TABLE SIZE: 705 POINTS
TCL: Running for 1500000 steps
ETITLE: TS BOND ANGLE DIHED IMPRP ELECT VDW BOUNDARY MISC KINETIC TOTAL TEMP POTENTIAL TOTALAVG TEMPAVG PRESSURE GPRESSURE VOLUME PRESSAVG GPRESSAVG
ENERGY: 0 4.4801 12.7805 15.0620 0.0000 -10767.2601 1393.6028 0.0000 0.0000 1863.0053 -7478.3295 314.0201 -9341.3348 -7478.3295 314.0201 -83.5082 2.4291 29919.7061 -83.5082 2.4291
ENERGY: 300000 4.2672 10.9659 15.6837 0.0000 -10588.2425 1334.8888 0.0000 0.0000 1799.7743 -7422.6625 303.3621 -9222.4368 -7488.5466 301.9966 -660.7352 -562.3582 30731.2416 47.2492 132.5282
ENERGY: 600000 7.4057 11.2327 20.7597 0.0000 -10727.7712 1408.4626 0.0000 0.0000 1745.5721 -7534.3385 294.2260 -9279.9106 -7484.8885 299.8346 -480.2750 -368.4044 30799.0292 44.4363 129.6869
ENERGY: 900000 7.1089 10.9385 12.0411 0.0000 -10692.5383 1377.4759 0.0000 0.0000 1767.1393 -7517.8347 297.8613 -9284.9739 -7487.7861 298.7554 -696.9539 -654.1536 30859.0579 14.3790 91.0506
ENERGY: 1200000 5.4321 17.3832 13.4768 0.0000 -10785.2231 1476.5629 0.0000 0.0000 1759.2144 -7513.1539 296.5255 -9272.3682 -7476.9980 299.7489 184.7267 282.1336 30624.2396 -40.9482 34.5228
ENERGY: 1500000 10.5754 15.1892 14.0138 0.0000 -10801.6349 1451.9598 0.0000 0.0000 1738.7550 -7571.1415 293.0770 -9309.8966 -7486.9299 298.9261 -77.5151 6.8319 30433.7943 -26.6738 46.3614
TCL: Running FEP window  19: Lambda1 0.9000000000000002 Lambda2 0.9500000000000003 [dLambda 0.050000000000000044]
TCL: Setting parameter firsttimestep to 0
TCL: Setting parameter alchLambda to 0.9000000000000002
Info: NONBONDED TABLE R-SQUARED SPACING: 0.0625
Info: NONBONDED TABLE SIZE: 705 POINTS
TCL: Setting parameter alchLambda2 to 0.9500000000000003
Info: NONBONDED TABLE R-SQUARED SPACING: 0.0625
Info: NONBONDED TABLE SIZE: 705 POINTS
TCL: Running for 1500000 steps
ETITLE: TS BOND ANGLE DIHED IMPRP ELECT VDW BOUNDARY MISC KINETIC TOTAL TEMP POTENTIAL TOTALAVG TEMPAVG PRESSURE GPRESSURE VOLUME PRESSAVG GPRESSAVG
ENERGY: 0 10.5754 15.1892 14.0138 0.0000 -10805.2062 1452.1751 0.0000 0.0000 1737.8831 -7575.3696 292.9300 -9313.2527 -7575.3696 292.9300 -55.9484 23.3439 30433.7943 -55.9484 23.3439
ENERGY: 300000 12.4074 9.9116 19.5934 0.0000 -10768.0292 1455.3991 0.0000 0.0000 1803.8903 -7466.8274 304.0559 -9270.7178 -7493.5954 300.4147 -204.2803 -245.5574 30594.9844 -97.7825 -55.2241
ENERGY: 600000 5.2558 20.7058 14.0388 0.0000 -10750.4410 1418.3348 0.0000 0.0000 1824.6740 -7467.4319 307.5591 -9292.1059 -7488.5725 302.3114 -237.4645 -215.7542 30638.4199 -60.9181 -7.0197
ENERGY: 900000 9.7027 13.8182 14.7565 0.0000 -10760.2378 1418.0637 0.0000 0.0000 1819.7558 -7484.1409 306.7301 -9303.8967 -7477.0276 301.8072 -352.0118 -268.8343 30882.0102 77.5242 128.2638
ENERGY: 1200000 3.9625 14.0079 15.5166 0.0000 -10822.6683 1514.7930 0.0000 0.0000 1806.0046 -7468.3836 304.4123 -9274.3882 -7475.0688 302.1602 510.0785 603.3339 30544.9339 13.7348 71.7347
ENERGY: 1500000 6.6742 13.6199 15.3787 0.0000 -10923.1326 1493.9365 0.0000 0.0000 1792.0280 -7601.4954 302.0564 -9393.5233 -7476.2840 302.3103 67.3459 128.4798 30279.7900 -74.6779 -11.0901
TCL: Running FEP window  20: Lambda1 0.9500000000000003 Lambda2 1.0    [dLambda 0.04999999999999971]
TCL: Setting parameter firsttimestep to 0
TCL: Setting parameter alchLambda to 0.9500000000000003
Info: NONBONDED TABLE R-SQUARED SPACING: 0.0625
Info: NONBONDED TABLE SIZE: 705 POINTS
TCL: Setting parameter alchLambda2 to 1.0
Info: NONBONDED TABLE R-SQUARED SPACING: 0.0625
Info: NONBONDED TABLE SIZE: 705 POINTS
TCL: Running for 1500000 steps
ETITLE: TS BOND ANGLE DIHED IMPRP ELECT VDW BOUNDARY MISC KINETIC TOTAL TEMP POTENTIAL TOTALAVG TEMPAVG PRESSURE GPRESSURE VOLUME PRESSAVG GPRESSAVG
ENERGY: 0 6.6742 13.6199 15.3787 0.0000 -10926.6261 1495.9248 0.0000 0.0000 1791.1153 -7603.9132 301.9026 -9395.0285 -7603.9132 301.9026 84.0928 166.1312 30279.7900 84.0928 166.1312
ENERGY: 300000 8.1543 13.6771 15.8826 0.0000 -10711.2485 1401.9352 0.0000 0.0000 1736.6842 -7534.9151 292.7279 -9271.5993 -7513.1561 301.6909 -378.9409 -359.3454 30530.3220 -85.2366 -31.4176
ENERGY: 600000 4.9383 8.5039 20.3255 0.0000 -10671.6858 1417.5822 0.0000 0.0000 1794.4901 -7425.8459 302.4714 -9220.3360 -7504.0751 300.2538 6.3771 82.3191 30425.0618 -149.5687 -86.0311
ENERGY: 900000 8.4188 13.7836 12.8590 0.0000 -10565.1501 1300.0699 0.0000 0.0000 1790.8111 -7439.2077 301.8513 -9230.0188 -7499.1608 300.3229 -1313.8078 -1187.7648 31005.6426 -225.8153 -158.4861
ENERGY: 1200000 8.6804 15.0655 17.0945 0.0000 -10511.7069 1310.3684 0.0000 0.0000 1815.3857 -7345.1125 305.9935 -9160.4982 -7487.6719 300.0833 -746.1514 -730.2497 31033.8833 -311.0035 -255.4626
ENERGY: 1500000 7.2861 8.1008 21.1100 0.0000 -10791.5919 1532.3497 0.0000 0.0000 1785.0117 -7437.7336 300.8738 -9222.7453 -7477.8903 301.1502 440.8985 529.7518 30989.6928 -240.4533 -180.2897
TCL: Exiting due to exit command.
