Info: SIMULATION PARAMETERS:
Info: TIMESTEP               2
Info: NUMBER OF STEPS        0
Info: STEPS PER CYCLE        10
Info: PERIODIC CELL BASIS 1  31.6506 0 0
Info: PERIODIC CELL BASIS 2  0 29.2851 0
Info: PERIODIC CELL BASIS 3  0 0 32.6967
Info: PERIODIC CELL CENTER   0 0 0
Info: WRAPPING WATERS AROUND PERIODIC BOUNDARIES ON OUTPUT.
Info: WRAPPING ALL CLUSTERS AROUND PERIODIC BOUNDARIES ON OUTPUT.
Info: FIRST LDB TIMESTEP     50
Info: LAST LDB TIMESTEP     -1
Info: HOM BACKGROUND SCALING 1
Info: PME BACKGROUND SCALING 1
Info: MIN ATOMS PER PATCH    40
Info: EMPTY PATCH LOAD       40 ATOMS
Info: VELOCITY FILE          mobley_4375719_equil.vel
Info: CENTER OF MASS MOVING INITIALLY? NO
Info: DIELECTRIC             1
Info: EXCLUDE                SCALED ONE-FOUR
Info: 1-4 ELECTROSTATICS SCALED BY 0.833333
Info: MODIFIED 1-4 VDW PARAMETERS WILL BE USED
Info: DCD FILENAME           mobley_4375719_prod.dcd
Info: DCD FREQUENCY          100000
Info: DCD FIRST STEP         100000
Info: DCD FILE WILL CONTAIN UNIT CELL DATA
Info: XST FILENAME           mobley_4375719_prod.xst
Info: XST FREQUENCY          100000
Info: NO VELOCITY DCD OUTPUT
Info: NO FORCE DCD OUTPUT
Info: OUTPUT FILENAME        mobley_4375719_prod
Info: BINARY OUTPUT FILES WILL BE USED
Info: RESTART FILENAME       mobley_4375719_prod.restart
Info: RESTART FREQUENCY      100000
Info: BINARY RESTART FILES WILL BE USED
Info: CUTOFF                 9
Info: PAIRLIST DISTANCE      11
Info: PAIRLIST SHRINK RATE   0.01
Info: PAIRLIST GROW RATE     0.01
Info: PAIRLIST TRIGGER       0.3
Info: PAIRLISTS PER CYCLE    2
Info: PAIRLISTS ENABLED
Info: MARGIN                 2
Info: HYDROGEN GROUP CUTOFF  2.5
Info: PATCH DIMENSION        15.5
Info: ENERGY OUTPUT STEPS    100000
Info: ENERGY EVALUATION STEPS    100000
Info: OUTPUT ENERGY PRECISION 4
Info: CROSSTERM ENERGY INCLUDED IN DIHEDRAL
Info: TIMING OUTPUT STEPS    1000000
Info: PRESSURE OUTPUT STEPS  100000
Info: ALCHEMICAL FEP ON
Info: FEP CURRENT LAMBDA VALUE     0
Info: FEP COMPARISON LAMBDA VALUE  0.05
Info: FEP INTRA-ALCHEMICAL NON-BONDED INTERACTIONS WILL BE RETAINED
Info: FEP INTRA-ALCHEMICAL BONDED INTERACTIONS WILL BE RETAINED
Info: FEP VDW SHIFTING COEFFICIENT 5
Info: FEP ELEC. ACTIVE FOR ANNIHILATED PARTICLES BETWEEN LAMBDA = 0 AND LAMBDA = 0.5
Info: FEP ELEC. ACTIVE FOR EXNIHILATED PARTICLES BETWEEN LAMBDA = 0.5 AND LAMBDA = 1
Info: FEP VDW ACTIVE FOR ANNIHILATED PARTICLES BETWEEN LAMBDA = 0 AND LAMBDA = 1
Info: FEP VDW ACTIVE FOR EXNIHILATED PARTICLES BETWEEN LAMBDA = 0 AND LAMBDA = 1
Info: FEP BOND ACTIVE FOR ANNIHILATED PARTICLES BETWEEN LAMBDA = 1 AND LAMBDA = 1
Info: FEP BOND ACTIVE FOR EXNIHILATED PARTICLES BETWEEN LAMBDA = 0 AND LAMBDA = 0
Info: LANGEVIN DYNAMICS ACTIVE
Info: LANGEVIN TEMPERATURE   300
Info: LANGEVIN USING BBK INTEGRATOR
Info: LANGEVIN DAMPING COEFFICIENT IS 1 INVERSE PS
Info: LANGEVIN DYNAMICS APPLIED TO HYDROGENS
Info: LANGEVIN PISTON PRESSURE CONTROL ACTIVE
Info:        TARGET PRESSURE IS 1.01325 BAR
Info:     OSCILLATION PERIOD IS 50 FS
Info:             DECAY TIME IS 25 FS
Info:     PISTON TEMPERATURE IS 300 K
Info:       PRESSURE CONTROL IS GROUP-BASED
Info:    INITIAL STRAIN RATE IS 0.000292558 0.000292558 0.000292558
Info:       CELL FLUCTUATION IS ISOTROPIC
Info: PARTICLE MESH EWALD (PME) ACTIVE
Info: PME TOLERANCE               1e-06
Info: PME EWALD COEFFICIENT       0.348832
Info: PME INTERPOLATION ORDER     4
Info: PME GRID DIMENSIONS         32 32 36
Info: PME MAXIMUM GRID SPACING    1
Info: PME CALCULATION WILL BE PERFORMED ON GPU
Info: FULL ELECTROSTATIC EVALUATION FREQUENCY      2
Info: USING VERLET I (r-RESPA) MTS SCHEME.
Info: C1 SPLITTING OF LONG RANGE ELECTROSTATICS
Info: PLACING ATOMS IN PATCHES BY HYDROGEN GROUPS
Info: RIGID BONDS TO HYDROGEN : ALL
Info:         ERROR TOLERANCE : 1e-08
Info:          MAX ITERATIONS : 100
Info: RIGID WATER USING SETTLE ALGORITHM
Info: RANDOM NUMBER SEED     1744072695
Info: USE HYDROGEN BONDS?    NO
Info: Using AMBER format force field!
Info: AMBER PARM FILE        mobley_4375719.prmtop
Info: COORDINATE PDB         mobley_4375719.pdb
Info: Exclusions will be read from PARM file!
Info: SCNB (VDW SCALING)     2
Info: USING ARITHMETIC MEAN TO COMBINE L-J SIGMA PARAMETERS
Info: BINARY COORDINATES     mobley_4375719_equil.coor
Info: SUMMARY OF PARAMETERS:
Info: 4 BONDS
Info: 3 ANGLES
Info:   3 HARMONIC
Info:   0 COSINE-BASED
Info: 5 DIHEDRAL
Info: 0 IMPROPER
Info: 0 CROSSTERM
Info: 0 VDW
Info: 10 VDW_PAIRS
Info: 0 NBTHOLE_PAIRS
Info: To read alchdata from file: mobley_4375719.pdb
Info: To read alchflag data from column: 5
Info: STRUCTURE SUMMARY:
Info: 2945 ATOMS
Info: 2944 BONDS
Info: 54 ANGLES
Info: 84 DIHEDRALS
Info: 0 IMPROPERS
Info: 0 CROSSTERMS
Info: 3070 EXCLUSIONS
Info: 2936 RIGID BONDS
Info: ALCH: 0 ATOMS TO DISAPPEAR IN FINAL STATE
Info: ALCH: 29 ATOMS TO APPEAR IN FINAL STATE
Info: 5899 DEGREES OF FREEDOM
Info: 981 HYDROGEN GROUPS
Info: 4 ATOMS IN LARGEST HYDROGEN GROUP
Info: 981 MIGRATION GROUPS
Info: 4 ATOMS IN LARGEST MIGRATION GROUP
Info: TOTAL MASS = 17639.8 amu
Info: TOTAL CHARGE = 0 e
Info: MASS DENSITY = 0.966541 g/cm^3
Info: ATOM DENSITY = 0.0971746 atoms/A^3
Info: ADDED 0 IMPLICIT EXCLUSIONS
Info: NONBONDED TABLE R-SQUARED SPACING: 0.0625
Info: NONBONDED TABLE SIZE: 705 POINTS
Info: REMOVING COM VELOCITY 0.140171 0.094489 0.0301395
Info: Use 3D box decompostion in PME FFT.
Info: Updated CUDA force table with 4096 elements.
Info: Updated CUDA LJ table with 4 x 4 elements.
Info: Found 32 unique exclusion lists needing 124 bytes
TCL: Running for 1500000 steps
ETITLE: TS BOND ANGLE DIHED IMPRP ELECT VDW BOUNDARY MISC KINETIC TOTAL TEMP POTENTIAL TOTALAVG TEMPAVG PRESSURE GPRESSURE VOLUME PRESSAVG GPRESSAVG
ENERGY: 0 3.9083 20.3184 6.1172 0.0000 -10603.8179 1457.3051 0.0000 0.0000 1750.6270 -7365.5419 298.6796 -9116.1689 -7365.5419 298.6796 310.3926 372.9650 30306.2765 310.3926 372.9650
ENERGY: 300000 3.0619 13.5903 5.3427 0.0000 -10548.1610 1398.7106 0.0000 0.0000 1737.3022 -7390.1533 296.4063 -9127.4555 -7391.9116 298.8526 -289.0385 -107.9806 29968.4276 91.0481 167.7795
ENERGY: 600000 1.8754 9.7103 3.7836 0.0000 -10606.4083 1412.3290 0.0000 0.0000 1767.9580 -7410.7520 301.6365 -9178.7100 -7395.3927 299.1897 -332.8554 -288.1256 30429.0773 32.4313 87.3622
ENERGY: 900000 2.4435 12.5047 4.8187 0.0000 -10527.0637 1446.3479 0.0000 0.0000 1740.7462 -7320.2028 296.9938 -9060.9489 -7378.4462 299.3059 101.7914 159.7249 30703.3903 -31.8604 24.3334
ENERGY: 1200000 5.1242 13.5091 5.0457 0.0000 -10693.0800 1512.3854 0.0000 0.0000 1775.7061 -7381.3094 302.9585 -9157.0156 -7376.8965 299.6884 725.9570 821.2854 29741.5016 22.3351 93.0491
ENERGY: 1500000 0.9322 14.3307 3.5033 0.0000 -10574.3342 1432.2536 0.0000 0.0000 1747.9216 -7375.3928 298.2181 -9123.3144 -7384.5931 298.9897 -44.0929 -42.6185 30341.3530 -38.9551 23.4333
TCL: Running FEP window   2: Lambda1 0.05   Lambda2 0.1    [dLambda 0.05  ]
TCL: Setting parameter firsttimestep to 0
TCL: Setting parameter alchLambda to 0.05
Info: NONBONDED TABLE R-SQUARED SPACING: 0.0625
Info: NONBONDED TABLE SIZE: 705 POINTS
TCL: Setting parameter alchLambda2 to 0.1
Info: NONBONDED TABLE R-SQUARED SPACING: 0.0625
Info: NONBONDED TABLE SIZE: 705 POINTS
TCL: Running for 1500000 steps
ETITLE: TS BOND ANGLE DIHED IMPRP ELECT VDW BOUNDARY MISC KINETIC TOTAL TEMP POTENTIAL TOTALAVG TEMPAVG PRESSURE GPRESSURE VOLUME PRESSAVG GPRESSAVG
ENERGY: 0 0.9322 14.3307 3.5033 0.0000 -10574.3343 1439.8420 0.0000 0.0000 1747.0632 -7368.6629 298.0716 -9115.7261 -7368.6629 298.0716 -117.9306 -33.1230 30341.3530 -117.9306 -33.1230
ENERGY: 300000 2.7818 13.3868 6.3283 0.0000 -10584.6772 1370.3747 0.0000 0.0000 1805.1088 -7386.6968 307.9749 -9191.8056 -7373.2805 302.4429 -713.3766 -677.8499 30466.0538 -166.0652 -111.2111
ENERGY: 600000 0.9443 12.7395 4.7251 0.0000 -10624.3998 1438.1157 0.0000 0.0000 1763.3038 -7404.5715 300.8425 -9167.8753 -7378.1096 301.0755 -174.5688 -83.4818 30088.8900 -68.6090 -14.1729
ENERGY: 900000 3.1880 9.6588 5.0864 0.0000 -10618.4705 1356.4048 0.0000 0.0000 1746.4595 -7497.6730 297.9686 -9244.1325 -7404.4786 300.1955 -797.5594 -776.0932 29758.3178 60.5521 114.2440
ENERGY: 1200000 2.5992 15.6197 4.8638 0.0000 -10612.2371 1451.2549 0.0000 0.0000 1765.7296 -7372.1698 301.2563 -9137.8995 -7399.7607 300.5334 263.8248 334.8095 29883.0679 41.6830 99.4066
ENERGY: 1500000 3.1520 12.6495 3.4948 0.0000 -10694.8792 1442.0573 0.0000 0.0000 1751.5328 -7481.9929 298.8342 -9233.5256 -7398.6295 300.0678 -23.0205 51.8200 29816.3827 38.1515 94.6942
TCL: Running FEP window   3: Lambda1 0.1    Lambda2 0.15000000000000002 [dLambda 0.05000000000000002]
TCL: Setting parameter firsttimestep to 0
TCL: Setting parameter alchLambda to 0.1
Info: NONBONDED TABLE R-SQUARED SPACING: 0.0625
Info: NONBONDED TABLE SIZE: 705 POINTS
TCL: Setting parameter alchLambda2 to 0.15000000000000002
Info: NONBONDED TABLE R-SQUARED SPACING: 0.0625
Info: NONBONDED TABLE SIZE: 705 POINTS
TCL: Running for 1500000 steps
ETITLE: TS BOND ANGLE DIHED IMPRP ELECT VDW BOUNDARY MISC KINETIC TOTAL TEMP POTENTIAL TOTALAVG TEMPAVG PRESSURE GPRESSURE VOLUME PRESSAVG GPRESSAVG
ENERGY: 0 3.1520 12.6495 3.4948 0.0000 -10694.8791 1444.6923 0.0000 0.0000 1750.6316 -7480.2590 298.6804 -9230.8905 -7480.2590 298.6804 -21.7527 62.1346 29816.3827 -21.7527 62.1346
ENERGY: 300000 4.2083 11.9147 6.4047 0.0000 -10516.5641 1361.6658 0.0000 0.0000 1737.8097 -7394.5608 296.4928 -9132.3705 -7453.0117 296.5013 -538.2686 -444.9052 30063.1549 70.2452 151.3211
ENERGY: 600000 2.8185 15.1406 7.0954 0.0000 -10697.4594 1473.0744 0.0000 0.0000 1769.5707 -7429.7598 301.9117 -9199.3305 -7438.1219 298.3891 385.4491 456.6296 29969.9845 -107.9510 -32.7472
ENERGY: 900000 1.9779 16.9068 6.0157 0.0000 -10648.6029 1480.9206 0.0000 0.0000 1802.9232 -7339.8588 307.6020 -9142.7820 -7408.7405 300.8762 265.8303 337.2983 30126.1034 84.6101 151.1788
ENERGY: 1200000 4.0742 17.6473 4.9344 0.0000 -10548.3720 1398.3508 0.0000 0.0000 1707.2748 -7416.0905 291.2832 -9123.3654 -7414.7791 299.0937 -300.4263 -284.2134 30272.6466 60.6877 122.0703
ENERGY: 1500000 1.0660 17.7831 5.9868 0.0000 -10521.5654 1373.9946 0.0000 0.0000 1751.3242 -7371.4108 298.7986 -9122.7350 -7407.5696 299.2989 -205.9964 -80.4633 29788.8960 31.2017 98.0053
TCL: Running FEP window   4: Lambda1 0.15000000000000002 Lambda2 0.2    [dLambda 0.04999999999999999]
TCL: Setting parameter firsttimestep to 0
TCL: Setting parameter alchLambda to 0.15000000000000002
Info: NONBONDED TABLE R-SQUARED SPACING: 0.0625
Info: NONBONDED TABLE SIZE: 705 POINTS
TCL: Setting parameter alchLambda2 to 0.2
Info: NONBONDED TABLE R-SQUARED SPACING: 0.0625
Info: NONBONDED TABLE SIZE: 705 POINTS
TCL: Running for 1500000 steps
ETITLE: TS BOND ANGLE DIHED IMPRP ELECT VDW BOUNDARY MISC KINETIC TOTAL TEMP POTENTIAL TOTALAVG TEMPAVG PRESSURE GPRESSURE VOLUME PRESSAVG GPRESSAVG
ENERGY: 0 1.0660 17.7831 5.9868 0.0000 -10521.5652 1374.1874 0.0000 0.0000 1750.4351 -7372.1070 298.6469 -9122.5421 -7372.1070 298.6469 -155.2401 -74.5602 29788.8960 -155.2401 -74.5602
ENERGY: 300000 3.6856 20.8921 6.6328 0.0000 -10681.1416 1416.7066 0.0000 0.0000 1749.8696 -7483.3549 298.5504 -9233.2245 -7396.6804 301.1693 -453.0677 -411.5223 29971.8781 -209.8888 -159.7473
ENERGY: 600000 1.4090 10.9058 5.9295 0.0000 -10563.4167 1391.1872 0.0000 0.0000 1807.1901 -7346.7950 308.3300 -9153.9851 -7386.6133 302.8616 -318.2452 -348.2698 30325.9283 -377.2345 -347.1265
ENERGY: 900000 3.7815 11.0472 4.4780 0.0000 -10672.1465 1417.6714 0.0000 0.0000 1753.4873 -7481.6812 299.1676 -9235.1684 -7399.8478 301.8006 -317.5986 -270.8827 30236.9511 -296.1735 -256.7942
ENERGY: 1200000 3.3626 12.5663 4.5653 0.0000 -10549.3219 1376.7280 0.0000 0.0000 1729.7619 -7422.3378 295.1198 -9152.0997 -7406.3279 301.5758 -492.5188 -464.5805 30063.6476 -235.6614 -195.6124
ENERGY: 1500000 3.0191 6.5155 4.2947 0.0000 -10615.0923 1421.5610 0.0000 0.0000 1761.8913 -7417.8108 300.6015 -9179.7021 -7411.7135 300.8742 -272.5287 -217.1221 30312.9686 -237.9223 -194.8357
TCL: Running FEP window   5: Lambda1 0.2    Lambda2 0.25   [dLambda 0.04999999999999999]
TCL: Setting parameter firsttimestep to 0
TCL: Setting parameter alchLambda to 0.2
Info: NONBONDED TABLE R-SQUARED SPACING: 0.0625
Info: NONBONDED TABLE SIZE: 705 POINTS
TCL: Setting parameter alchLambda2 to 0.25
Info: NONBONDED TABLE R-SQUARED SPACING: 0.0625
Info: NONBONDED TABLE SIZE: 705 POINTS
TCL: Running for 1500000 steps
ETITLE: TS BOND ANGLE DIHED IMPRP ELECT VDW BOUNDARY MISC KINETIC TOTAL TEMP POTENTIAL TOTALAVG TEMPAVG PRESSURE GPRESSURE VOLUME PRESSAVG GPRESSAVG
ENERGY: 0 3.0191 6.5155 4.2947 0.0000 -10615.0929 1422.3273 0.0000 0.0000 1761.0169 -7417.9194 300.4523 -9178.9363 -7417.9194 300.4523 -298.9728 -207.7597 30312.9686 -298.9728 -207.7597
ENERGY: 300000 3.9697 12.9438 3.5700 0.0000 -10439.3559 1363.5116 0.0000 0.0000 1780.2904 -7275.0704 303.7406 -9055.3609 -7365.3073 300.2999 -110.6555 5.0905 30009.4008 -103.8333 -19.0368
ENERGY: 600000 5.0737 9.3840 5.0152 0.0000 -10677.6426 1528.5907 0.0000 0.0000 1828.1404 -7301.4385 311.9044 -9129.5790 -7377.1375 302.2456 669.4949 723.7750 30195.5843 88.7658 159.2554
ENERGY: 900000 3.6174 19.0535 5.1094 0.0000 -10536.9070 1366.6327 0.0000 0.0000 1749.3956 -7393.0984 298.4695 -9142.4940 -7395.4138 301.8155 -398.1013 -396.6854 30002.2655 58.7650 117.7287
ENERGY: 1200000 3.4841 13.1476 3.7819 0.0000 -10552.4825 1373.6160 0.0000 0.0000 1760.4984 -7397.9545 300.3638 -9158.4528 -7394.5334 302.3333 -163.8566 -59.1549 29513.6604 108.2150 169.8964
ENERGY: 1500000 2.0146 7.7510 4.3476 0.0000 -10785.8582 1543.9105 0.0000 0.0000 1764.4624 -7463.3722 301.0401 -9227.8345 -7388.7119 301.7029 886.5566 876.4764 29965.1161 112.9014 167.9926
TCL: Running FEP window   6: Lambda1 0.25   Lambda2 0.3    [dLambda 0.04999999999999999]
TCL: Setting parameter firsttimestep to 0
TCL: Setting parameter alchLambda to 0.25
Info: NONBONDED TABLE R-SQUARED SPACING: 0.0625
Info: NONBONDED TABLE SIZE: 705 POINTS
TCL: Setting parameter alchLambda2 to 0.3
Info: NONBONDED TABLE R-SQUARED SPACING: 0.0625
Info: NONBONDED TABLE SIZE: 705 POINTS
TCL: Running for 1500000 steps
ETITLE: TS BOND ANGLE DIHED IMPRP ELECT VDW BOUNDARY MISC KINETIC TOTAL TEMP POTENTIAL TOTALAVG TEMPAVG PRESSURE GPRESSURE VOLUME PRESSAVG GPRESSAVG
ENERGY: 0 2.0146 7.7510 4.3476 0.0000 -10785.8579 1544.2061 0.0000 0.0000 1763.5899 -7463.9488 300.8913 -9227.5387 -7463.9488 300.8913 823.4862 883.7131 29965.1161 823.4862 883.7131
ENERGY: 300000 2.2927 14.4699 3.7354 0.0000 -10709.8955 1516.0101 0.0000 0.0000 1774.7545 -7398.6329 302.7961 -9173.3874 -7387.3460 302.3520 707.8283 763.0913 29808.7943 346.4889 422.1816
ENERGY: 600000 0.8005 14.0562 6.4067 0.0000 -10622.5795 1497.3200 0.0000 0.0000 1755.9799 -7348.0163 299.5929 -9103.9961 -7401.2586 300.7469 678.4226 780.6131 30174.7673 165.7244 239.3599
ENERGY: 900000 2.3914 16.5579 4.5561 0.0000 -10705.8938 1509.5089 0.0000 0.0000 1745.1130 -7427.7665 297.7389 -9172.8795 -7378.7680 301.2553 856.3102 875.7898 29909.9871 47.2159 107.0649
ENERGY: 1200000 1.1716 14.7653 6.7256 0.0000 -10491.2765 1378.8174 0.0000 0.0000 1818.3164 -7271.4801 310.2283 -9089.7965 -7365.2449 301.9690 -147.2857 -95.7017 30263.9695 2.5230 58.4207
ENERGY: 1500000 2.4397 14.8782 6.5893 0.0000 -10617.4259 1447.8630 0.0000 0.0000 1736.2316 -7409.4241 296.2236 -9145.6557 -7368.4540 301.0821 91.6113 140.4132 30225.5559 -39.7693 15.3708
TCL: Running FEP window   7: Lambda1 0.3    Lambda2 0.35   [dLambda 0.04999999999999999]
TCL: Setting parameter firsttimestep to 0
TCL: Setting parameter alchLambda to 0.3
Info: NONBONDED TABLE R-SQUARED SPACING: 0.0625
Info: NONBONDED TABLE SIZE: 705 POINTS
TCL: Setting parameter alchLambda2 to 0.35
Info: NONBONDED TABLE R-SQUARED SPACING: 0.0625
Info: NONBONDED TABLE SIZE: 705 POINTS
TCL: Running for 1500000 steps
ETITLE: TS BOND ANGLE DIHED IMPRP ELECT VDW BOUNDARY MISC KINETIC TOTAL TEMP POTENTIAL TOTALAVG TEMPAVG PRESSURE GPRESSURE VOLUME PRESSAVG GPRESSAVG
ENERGY: 0 2.4397 14.8782 6.5893 0.0000 -10617.4269 1450.3232 0.0000 0.0000 1735.3372 -7407.8592 296.0710 -9143.1965 -7407.8592 296.0710 88.2094 163.5898 30225.5559 88.2094 163.5898
ENERGY: 300000 3.6284 12.1112 4.4190 0.0000 -10608.0854 1401.7082 0.0000 0.0000 1765.6886 -7420.5300 301.2493 -9186.2186 -7377.0500 304.1199 -419.2715 -363.7834 30052.4636 -273.0937 -192.3388
ENERGY: 600000 1.6592 15.4716 4.3323 0.0000 -10645.6629 1475.7683 0.0000 0.0000 1807.0934 -7341.3381 308.3135 -9148.4315 -7394.9043 303.1335 280.0187 330.2277 30208.7307 -187.9350 -119.6892
ENERGY: 900000 4.1958 20.1165 4.3785 0.0000 -10541.3885 1424.3158 0.0000 0.0000 1711.5889 -7376.7930 292.0192 -9088.3819 -7385.8706 301.9894 -17.4740 25.4342 30203.7643 -189.4204 -124.5392
ENERGY: 1200000 2.1990 14.8753 4.6592 0.0000 -10617.2133 1462.1638 0.0000 0.0000 1800.4270 -7332.8891 307.1762 -9133.3161 -7377.3854 303.1939 325.8320 400.7146 30008.3810 -130.9969 -59.5112
ENERGY: 1500000 4.6290 14.1506 8.0078 0.0000 -10636.4976 1505.4806 0.0000 0.0000 1817.2189 -7287.0108 310.0411 -9104.2296 -7373.7859 303.1144 574.3929 650.4831 30514.3841 -53.0299 17.4393
TCL: Running FEP window   8: Lambda1 0.35   Lambda2 0.39999999999999997 [dLambda 0.04999999999999999]
TCL: Setting parameter firsttimestep to 0
TCL: Setting parameter alchLambda to 0.35
Info: NONBONDED TABLE R-SQUARED SPACING: 0.0625
Info: NONBONDED TABLE SIZE: 705 POINTS
TCL: Setting parameter alchLambda2 to 0.39999999999999997
Info: NONBONDED TABLE R-SQUARED SPACING: 0.0625
Info: NONBONDED TABLE SIZE: 705 POINTS
TCL: Running for 1500000 steps
ETITLE: TS BOND ANGLE DIHED IMPRP ELECT VDW BOUNDARY MISC KINETIC TOTAL TEMP POTENTIAL TOTALAVG TEMPAVG PRESSURE GPRESSURE VOLUME PRESSAVG GPRESSAVG
ENERGY: 0 4.6290 14.1506 8.0078 0.0000 -10636.4971 1505.1739 0.0000 0.0000 1816.3668 -7288.1689 309.8957 -9104.5358 -7288.1689 309.8957 572.7862 652.9647 30514.3841 572.7862 652.9647
ENERGY: 300000 2.6753 11.9058 5.3331 0.0000 -10590.3514 1396.2318 0.0000 0.0000 1816.4848 -7357.7207 309.9158 -9174.2054 -7382.9871 303.8238 48.1742 100.0543 29939.0499 386.2950 434.0758
ENERGY: 600000 1.9751 14.1050 3.8770 0.0000 -10564.3168 1411.8946 0.0000 0.0000 1785.8812 -7346.5840 304.6945 -9132.4651 -7372.5159 304.4636 -292.5325 -256.7163 30653.6408 287.8893 340.7236
ENERGY: 900000 3.8593 11.7717 5.9453 0.0000 -10632.0143 1427.7695 0.0000 0.0000 1788.2156 -7394.4528 305.0927 -9182.6685 -7362.4214 303.3596 68.3465 176.8073 29655.3105 194.6453 259.5186
ENERGY: 1200000 3.7689 13.8070 6.9863 0.0000 -10624.4809 1436.9524 0.0000 0.0000 1793.5814 -7369.3849 306.0082 -9162.9663 -7365.0425 304.2687 157.9767 127.8442 30153.3642 167.8770 223.2624
ENERGY: 1500000 2.7392 15.4267 4.8563 0.0000 -10617.6314 1439.4934 0.0000 0.0000 1729.9079 -7425.2079 295.1447 -9155.1158 -7376.9943 303.2370 -49.2110 -42.1631 30192.6256 205.0117 256.2747
TCL: Running FEP window   9: Lambda1 0.39999999999999997 Lambda2 0.44999999999999996 [dLambda 0.04999999999999999]
TCL: Setting parameter firsttimestep to 0
TCL: Setting parameter alchLambda to 0.39999999999999997
Info: NONBONDED TABLE R-SQUARED SPACING: 0.0625
Info: NONBONDED TABLE SIZE: 705 POINTS
TCL: Setting parameter alchLambda2 to 0.44999999999999996
Info: NONBONDED TABLE R-SQUARED SPACING: 0.0625
Info: NONBONDED TABLE SIZE: 705 POINTS
TCL: Running for 1500000 steps
ETITLE: TS BOND ANGLE DIHED IMPRP ELECT VDW BOUNDARY MISC KINETIC TOTAL TEMP POTENTIAL TOTALAVG TEMPAVG PRESSURE GPRESSURE VOLUME PRESSAVG GPRESSAVG
ENERGY: 0 2.7392 15.4267 4.8563 0.0000 -10617.6315 1439.9969 0.0000 0.0000 1729.0240 -7425.5884 294.9939 -9154.6124 -7425.5884 294.9939 -103.2852 -31.2663 30192.6256 -103.2852 -31.2663
ENERGY: 300000 2.4577 14.7630 3.6265 0.0000 -10542.6047 1374.6188 0.0000 0.0000 1769.6697 -7377.4691 301.9286 -9147.1388 -7361.9101 299.2563 -368.0003 -225.9293 29938.4488 -434.9050 -344.2733
ENERGY: 600000 4.1054 11.0048 8.4689 0.0000 -10531.9262 1409.5183 0.0000 0.0000 1807.1328 -7291.6960 308.3203 -9098.8288 -7366.6018 302.0218 -15.6027 57.9565 30345.4554 -275.0547 -193.5452
ENERGY: 900000 1.6411 14.5134 5.9955 0.0000 -10741.0966 1459.2499 0.0000 0.0000 1758.8905 -7500.8063 300.0895 -9259.6968 -7387.5926 301.0590 -106.5008 -36.3152 30313.9446 -285.4807 -210.3121
ENERGY: 1200000 4.1124 14.1127 6.4949 0.0000 -10630.7646 1445.9577 0.0000 0.0000 1718.7232 -7441.3636 293.2364 -9160.0868 -7385.2012 302.0468 97.4095 84.5255 29972.5367 -204.7915 -138.1931
ENERGY: 1500000 1.8922 13.9873 4.0564 0.0000 -10603.1424 1497.8705 0.0000 0.0000 1731.1076 -7354.2284 295.3494 -9085.3360 -7381.5102 301.5982 722.7333 786.4734 30307.9359 -167.5385 -98.6754
TCL: Running FEP window  10: Lambda1 0.44999999999999996 Lambda2 0.49999999999999994 [dLambda 0.04999999999999999]
TCL: Setting parameter firsttimestep to 0
TCL: Setting parameter alchLambda to 0.44999999999999996
Info: NONBONDED TABLE R-SQUARED SPACING: 0.0625
Info: NONBONDED TABLE SIZE: 705 POINTS
TCL: Setting parameter alchLambda2 to 0.49999999999999994
Info: NONBONDED TABLE R-SQUARED SPACING: 0.0625
Info: NONBONDED TABLE SIZE: 705 POINTS
TCL: Running for 1500000 steps
ETITLE: TS BOND ANGLE DIHED IMPRP ELECT VDW BOUNDARY MISC KINETIC TOTAL TEMP POTENTIAL TOTALAVG TEMPAVG PRESSURE GPRESSURE VOLUME PRESSAVG GPRESSAVG
ENERGY: 0 1.8922 13.9873 4.0564 0.0000 -10603.1432 1499.2101 0.0000 0.0000 1730.2302 -7353.7670 295.1997 -9083.9972 -7353.7670 295.1997 720.6423 807.2767 30307.9359 720.6423 807.2767
ENERGY: 300000 3.0586 11.6721 4.9345 0.0000 -10489.4864 1382.7176 0.0000 0.0000 1759.9859 -7327.1179 300.2764 -9087.1038 -7365.5367 302.2097 -428.1142 -385.1451 30415.5062 16.2007 64.9632
ENERGY: 600000 2.3706 11.9453 5.5211 0.0000 -10682.1250 1445.7624 0.0000 0.0000 1747.4765 -7469.0492 298.1421 -9216.5257 -7392.0644 301.0631 -60.8574 64.3178 30075.4945 -48.7377 1.7829
ENERGY: 900000 5.7701 13.1637 6.3487 0.0000 -10542.6647 1417.8641 0.0000 0.0000 1741.5627 -7357.9553 297.1332 -9099.5180 -7394.5355 300.3352 -242.5904 -181.7577 30366.6032 -15.8119 31.8421
ENERGY: 1200000 2.2754 14.7044 4.6104 0.0000 -10600.1794 1398.9212 0.0000 0.0000 1810.0094 -7369.6587 308.8110 -9179.6681 -7402.2496 300.8977 -341.0885 -273.6703 30118.5220 -63.1652 -13.2796
ENERGY: 1500000 3.5690 11.6997 8.3315 0.0000 -10647.4620 1439.9670 0.0000 0.0000 1788.2521 -7395.6427 305.0990 -9183.8948 -7398.8087 301.2995 151.8718 179.4769 30194.8038 -127.1934 -79.4373
TCL: Running FEP window  11: Lambda1 0.49999999999999994 Lambda2 0.5499999999999999 [dLambda 0.04999999999999999]
TCL: Setting parameter firsttimestep to 0
TCL: Setting parameter alchLambda to 0.49999999999999994
Info: NONBONDED TABLE R-SQUARED SPACING: 0.0625
Info: NONBONDED TABLE SIZE: 705 POINTS
TCL: Setting parameter alchLambda2 to 0.5499999999999999
Info: NONBONDED TABLE R-SQUARED SPACING: 0.0625
Info: NONBONDED TABLE SIZE: 705 POINTS
TCL: Running for 1500000 steps
ETITLE: TS BOND ANGLE DIHED IMPRP ELECT VDW BOUNDARY MISC KINETIC TOTAL TEMP POTENTIAL TOTALAVG TEMPAVG PRESSURE GPRESSURE VOLUME PRESSAVG GPRESSAVG
ENERGY: 0 3.5690 11.6997 8.3315 0.0000 -10647.4621 1439.5904 0.0000 0.0000 1787.3601 -7396.9114 304.9468 -9184.2716 -7396.9114 304.9468 112.2875 184.3890 30194.8038 112.2875 184.3890
ENERGY: 300000 1.9603 9.2698 6.5149 0.0000 -10525.3751 1398.3204 0.0000 0.0000 1761.4454 -7347.8643 300.5254 -9109.3097 -7334.5124 304.8933 -193.0333 -126.0882 30582.7185 -116.2511 -62.3606
ENERGY: 600000 1.9570 14.4731 4.5634 0.0000 -10761.4065 1492.1189 0.0000 0.0000 1770.0121 -7478.2819 301.9870 -9248.2941 -7379.2749 301.1797 384.2077 406.8022 30002.7234 -36.4271 21.0449
ENERGY: 900000 3.2122 13.7976 5.0836 0.0000 -10667.7399 1457.8972 0.0000 0.0000 1796.9283 -7390.8209 306.5792 -9187.7493 -7385.8783 302.7759 52.1916 159.3770 30139.3000 -47.8049 16.1547
ENERGY: 1200000 1.9593 16.8268 5.7339 0.0000 -10699.0414 1434.7420 0.0000 0.0000 1790.2963 -7449.4833 305.4477 -9239.7795 -7390.5066 302.2996 186.7930 210.4225 29955.8255 1.3384 57.5591
ENERGY: 1500000 5.1016 14.9886 5.0401 0.0000 -10488.9627 1332.7710 0.0000 0.0000 1719.4015 -7411.6599 293.3522 -9131.0613 -7385.1729 302.2090 -734.4101 -708.3723 30442.9603 -49.5163 3.3448
TCL: Running FEP window  12: Lambda1 0.5499999999999999 Lambda2 0.6    [dLambda 0.050000000000000044]
TCL: Setting parameter firsttimestep to 0
TCL: Setting parameter alchLambda to 0.5499999999999999
Info: NONBONDED TABLE R-SQUARED SPACING: 0.0625
Info: NONBONDED TABLE SIZE: 705 POINTS
TCL: Setting parameter alchLambda2 to 0.6
Info: NONBONDED TABLE R-SQUARED SPACING: 0.0625
Info: NONBONDED TABLE SIZE: 705 POINTS
TCL: Running for 1500000 steps
ETITLE: TS BOND ANGLE DIHED IMPRP ELECT VDW BOUNDARY MISC KINETIC TOTAL TEMP POTENTIAL TOTALAVG TEMPAVG PRESSURE GPRESSURE VOLUME PRESSAVG GPRESSAVG
ENERGY: 0 5.1016 14.9886 5.0401 0.0000 -10488.8898 1332.6204 0.0000 0.0000 1718.4940 -7412.6450 293.1973 -9131.1390 -7412.6450 293.1973 -791.1255 -700.0315 30442.9603 -791.1255 -700.0315
ENERGY: 300000 3.2657 13.6009 4.4480 0.0000 -10668.1613 1430.2426 0.0000 0.0000 1792.1662 -7424.4379 305.7668 -9216.6042 -7416.4722 302.1705 -354.7075 -318.8040 30300.9525 -147.6695 -90.8413
ENERGY: 600000 2.3349 10.3750 4.5700 0.0000 -10575.2217 1379.7289 0.0000 0.0000 1761.2990 -7416.9138 300.5004 -9178.2128 -7413.7030 300.2885 -466.1224 -462.9427 30483.7455 -162.6103 -115.4938
ENERGY: 900000 3.0234 12.4689 4.3914 0.0000 -10469.0188 1323.6357 0.0000 0.0000 1761.2432 -7364.2562 300.4909 -9125.4994 -7404.9303 299.8157 -756.0194 -663.3597 30201.7711 -201.6646 -155.4062
ENERGY: 1200000 2.5989 16.6292 4.6100 0.0000 -10686.3755 1492.1222 0.0000 0.0000 1748.2520 -7422.1632 298.2744 -9170.4152 -7408.2156 300.3055 184.5388 233.8852 30629.0756 -209.8824 -158.8842
ENERGY: 1500000 2.7098 13.6051 6.6967 0.0000 -10588.3787 1447.2070 0.0000 0.0000 1727.4514 -7390.7086 294.7256 -9118.1601 -7400.8087 299.7534 140.1096 230.9469 30055.3197 -84.2643 -34.0621
TCL: Running FEP window  13: Lambda1 0.6    Lambda2 0.65   [dLambda 0.050000000000000044]
TCL: Setting parameter firsttimestep to 0
TCL: Setting parameter alchLambda to 0.6
Info: NONBONDED TABLE R-SQUARED SPACING: 0.0625
Info: NONBONDED TABLE SIZE: 705 POINTS
TCL: Setting parameter alchLambda2 to 0.65
Info: NONBONDED TABLE R-SQUARED SPACING: 0.0625
Info: NONBONDED TABLE SIZE: 705 POINTS
TCL: Running for 1500000 steps
ETITLE: TS BOND ANGLE DIHED IMPRP ELECT VDW BOUNDARY MISC KINETIC TOTAL TEMP POTENTIAL TOTALAVG TEMPAVG PRESSURE GPRESSURE VOLUME PRESSAVG GPRESSAVG
ENERGY: 0 2.7098 13.6051 6.6967 0.0000 -10588.3209 1447.9179 0.0000 0.0000 1726.5716 -7390.8199 294.5755 -9117.3915 -7390.8199 294.5755 162.0613 250.5448 30055.3197 162.0613 250.5448
ENERGY: 300000 3.7967 14.2815 5.5431 0.0000 -10607.3596 1373.9735 0.0000 0.0000 1719.0008 -7490.7640 293.2838 -9209.7647 -7423.1341 297.0338 -449.5317 -292.1615 30075.0501 -200.6478 -86.2226
ENERGY: 600000 4.7363 10.8783 6.4248 0.0000 -10500.4433 1329.1733 0.0000 0.0000 1754.5223 -7394.7083 299.3442 -9149.2305 -7425.9198 297.5972 -805.7360 -713.9049 30318.8773 -239.5872 -149.8407
ENERGY: 900000 3.5230 13.2905 4.8275 0.0000 -10608.1832 1466.8141 0.0000 0.0000 1774.9971 -7344.7311 302.8375 -9119.7282 -7409.1080 299.5187 155.8965 233.4612 30435.2403 -124.4359 -46.6005
ENERGY: 1200000 1.4616 11.3341 3.3950 0.0000 -10600.0286 1408.4999 0.0000 0.0000 1775.1590 -7400.1791 302.8651 -9175.3381 -7411.8249 300.3835 -104.5673 -12.4489 30229.5084 -149.1900 -77.1975
ENERGY: 1500000 1.8202 12.1763 5.6778 0.0000 -10781.2652 1516.9545 0.0000 0.0000 1791.7343 -7452.9021 305.6931 -9244.6365 -7414.9762 300.3327 661.3721 773.3089 29820.0161 -87.7473 -19.3852
TCL: Running FEP window  14: Lambda1 0.65   Lambda2 0.7000000000000001 [dLambda 0.050000000000000044]
TCL: Setting parameter firsttimestep to 0
TCL: Setting parameter alchLambda to 0.65
Info: NONBONDED TABLE R-SQUARED SPACING: 0.0625
Info: NONBONDED TABLE SIZE: 705 POINTS
TCL: Setting parameter alchLambda2 to 0.7000000000000001
Info: NONBONDED TABLE R-SQUARED SPACING: 0.0625
Info: NONBONDED TABLE SIZE: 705 POINTS
TCL: Running for 1500000 steps
ETITLE: TS BOND ANGLE DIHED IMPRP ELECT VDW BOUNDARY MISC KINETIC TOTAL TEMP POTENTIAL TOTALAVG TEMPAVG PRESSURE GPRESSURE VOLUME PRESSAVG GPRESSAVG
ENERGY: 0 1.8202 12.1763 5.6778 0.0000 -10781.2587 1518.2674 0.0000 0.0000 1790.8928 -7452.4242 305.5495 -9243.3171 -7452.4242 305.5495 699.9101 797.5494 29820.0161 699.9101 797.5494
ENERGY: 300000 1.6429 11.8617 4.0510 0.0000 -10621.7205 1443.2483 0.0000 0.0000 1795.8660 -7365.0506 306.3980 -9160.9166 -7354.2727 307.3924 280.1956 360.4553 29839.8826 112.2549 178.7395
ENERGY: 600000 0.4535 15.1368 4.9930 0.0000 -10594.1902 1465.4818 0.0000 0.0000 1764.2032 -7343.9220 300.9959 -9108.1251 -7378.3135 303.2915 394.2519 429.9325 30334.3469 74.5938 135.5138
ENERGY: 900000 2.8264 16.9234 3.7305 0.0000 -10602.4933 1382.3652 0.0000 0.0000 1812.0268 -7384.6210 309.1552 -9196.6478 -7382.5535 303.3555 -232.6346 -133.9200 29978.9365 0.6168 71.3216
ENERGY: 1200000 4.3672 14.4961 6.3072 0.0000 -10570.9668 1393.1429 0.0000 0.0000 1731.2985 -7421.3550 295.3819 -9152.6535 -7385.6422 301.7992 -329.2681 -253.0081 30168.6917 -56.8577 11.1542
ENERGY: 1500000 0.7956 9.1632 4.1649 0.0000 -10712.7465 1467.2257 0.0000 0.0000 1755.7966 -7475.6005 299.5616 -9231.3971 -7387.6707 301.7232 340.4649 372.1726 29731.7414 -16.3406 47.1970
TCL: Running FEP window  15: Lambda1 0.7000000000000001 Lambda2 0.7500000000000001 [dLambda 0.050000000000000044]
TCL: Setting parameter firsttimestep to 0
TCL: Setting parameter alchLambda to 0.7000000000000001
Info: NONBONDED TABLE R-SQUARED SPACING: 0.0625
Info: NONBONDED TABLE SIZE: 705 POINTS
TCL: Setting parameter alchLambda2 to 0.7500000000000001
Info: NONBONDED TABLE R-SQUARED SPACING: 0.0625
Info: NONBONDED TABLE SIZE: 705 POINTS
TCL: Running for 1500000 steps
ETITLE: TS BOND ANGLE DIHED IMPRP ELECT VDW BOUNDARY MISC KINETIC TOTAL TEMP POTENTIAL TOTALAVG TEMPAVG PRESSURE GPRESSURE VOLUME PRESSAVG GPRESSAVG
ENERGY: 0 0.7956 9.1632 4.1649 0.0000 -10712.7193 1467.3874 0.0000 0.0000 1754.9620 -7476.2463 299.4192 -9231.2083 -7476.2463 299.4192 300.1492 390.5763 29731.7414 300.1492 390.5763
ENERGY: 300000 2.2985 17.5268 4.7742 0.0000 -10616.0998 1413.0744 0.0000 0.0000 1819.7440 -7358.6819 310.4719 -9178.4259 -7426.4575 300.9514 145.0154 203.7083 29708.3083 -151.4745 -93.9908
ENERGY: 600000 3.7785 9.3614 5.0574 0.0000 -10499.3590 1386.9318 0.0000 0.0000 1791.1613 -7303.0684 305.5953 -9094.2298 -7393.3270 300.8447 -253.6166 -184.6355 30175.4491 -85.9917 -30.4072
ENERGY: 900000 3.6230 7.4316 4.8581 0.0000 -10806.8703 1564.1485 0.0000 0.0000 1795.0963 -7431.7128 306.2667 -9226.8091 -7396.4571 301.2611 1134.0329 1259.1811 29739.3375 -3.6838 52.0828
ENERGY: 1200000 2.4276 15.1183 6.6003 0.0000 -10593.7487 1343.4637 0.0000 0.0000 1747.6093 -7478.5296 298.1648 -9226.1389 -7398.7443 301.2250 -590.5177 -539.4895 29762.6201 -32.8829 31.0325
ENERGY: 1500000 2.5131 16.3070 5.2863 0.0000 -10608.9366 1484.7045 0.0000 0.0000 1777.0715 -7323.0543 303.1914 -9100.1258 -7394.1904 301.3874 679.9393 720.0911 30353.7788 101.9298 153.3475
TCL: Running FEP window  16: Lambda1 0.7500000000000001 Lambda2 0.8000000000000002 [dLambda 0.050000000000000044]
TCL: Setting parameter firsttimestep to 0
TCL: Setting parameter alchLambda to 0.7500000000000001
Info: NONBONDED TABLE R-SQUARED SPACING: 0.0625
Info: NONBONDED TABLE SIZE: 705 POINTS
TCL: Setting parameter alchLambda2 to 0.8000000000000002
Info: NONBONDED TABLE R-SQUARED SPACING: 0.0625
Info: NONBONDED TABLE SIZE: 705 POINTS
TCL: Running for 1500000 steps
ETITLE: TS BOND ANGLE DIHED IMPRP ELECT VDW BOUNDARY MISC KINETIC TOTAL TEMP POTENTIAL TOTALAVG TEMPAVG PRESSURE GPRESSURE VOLUME PRESSAVG GPRESSAVG
ENERGY: 0 2.5131 16.3070 5.2863 0.0000 -10608.9330 1484.5221 0.0000 0.0000 1776.2074 -7324.0971 303.0440 -9100.3045 -7324.0971 303.0440 658.6175 733.2179 30353.7788 658.6175 733.2179
ENERGY: 300000 2.3185 11.4805 4.2411 0.0000 -10629.6970 1446.0060 0.0000 0.0000 1866.5768 -7299.0741 318.4622 -9165.6509 -7369.1793 305.2045 240.9226 281.6214 30457.3554 417.9159 498.5879
ENERGY: 600000 2.1521 20.4981 6.4228 0.0000 -10656.7091 1457.2602 0.0000 0.0000 1810.9968 -7359.3791 308.9795 -9170.3759 -7394.6680 304.8145 341.2520 427.3532 30156.6137 147.3414 208.6066
ENERGY: 900000 2.6401 8.6752 4.3549 0.0000 -10548.8043 1351.2761 0.0000 0.0000 1737.5386 -7444.3194 296.4466 -9181.8581 -7412.5913 303.0393 -647.5466 -644.6325 30389.8256 -3.8044 58.3183
ENERGY: 1200000 4.2013 20.4799 5.0721 0.0000 -10769.1378 1537.6351 0.0000 0.0000 1735.4867 -7466.2627 296.0965 -9201.7494 -7412.6940 302.3489 966.2826 1005.2728 29602.0980 25.7424 81.6238
ENERGY: 1500000 1.6931 9.5418 3.6620 0.0000 -10721.6683 1494.6393 0.0000 0.0000 1759.5783 -7452.5538 300.2068 -9212.1321 -7417.0220 301.2993 270.3784 387.6336 30195.2331 -11.3436 47.8741
TCL: Running FEP window  17: Lambda1 0.8000000000000002 Lambda2 0.8500000000000002 [dLambda 0.050000000000000044]
TCL: Setting parameter firsttimestep to 0
TCL: Setting parameter alchLambda to 0.8000000000000002
Info: NONBONDED TABLE R-SQUARED SPACING: 0.0625
Info: NONBONDED TABLE SIZE: 705 POINTS
TCL: Setting parameter alchLambda2 to 0.8500000000000002
Info: NONBONDED TABLE R-SQUARED SPACING: 0.0625
Info: NONBONDED TABLE SIZE: 705 POINTS
TCL: Running for 1500000 steps
ETITLE: TS BOND ANGLE DIHED IMPRP ELECT VDW BOUNDARY MISC KINETIC TOTAL TEMP POTENTIAL TOTALAVG TEMPAVG PRESSURE GPRESSURE VOLUME PRESSAVG GPRESSAVG
ENERGY: 0 1.6931 9.5418 3.6620 0.0000 -10721.6591 1494.0514 0.0000 0.0000 1758.6943 -7454.0165 300.0560 -9212.7108 -7454.0165 300.0560 321.1832 395.4679 30195.2331 321.1832 395.4679
ENERGY: 300000 1.8781 11.6129 3.7775 0.0000 -10556.6122 1379.2879 0.0000 0.0000 1781.0369 -7379.0189 303.8680 -9160.0558 -7407.3201 302.7745 -113.5144 -41.5151 30189.1285 84.4379 163.5774
ENERGY: 600000 3.3991 12.0081 7.1173 0.0000 -10658.5050 1440.8637 0.0000 0.0000 1757.7333 -7437.3834 299.8921 -9195.1167 -7412.3118 301.5229 0.3264 65.4615 30001.2177 73.9840 152.0449
ENERGY: 900000 1.0048 12.6280 6.1730 0.0000 -10629.4374 1461.2388 0.0000 0.0000 1786.9077 -7361.4850 304.8696 -9148.3927 -7411.8418 299.8096 284.5373 335.6759 30178.2979 43.4941 125.5024
ENERGY: 1200000 1.1142 19.5774 3.3834 0.0000 -10766.4484 1477.2059 0.0000 0.0000 1752.8334 -7512.3342 299.0561 -9265.1676 -7414.7158 299.7441 157.5519 216.9153 30021.6625 6.7040 79.3371
ENERGY: 1500000 2.3377 17.5655 4.2858 0.0000 -10525.9089 1425.2679 0.0000 0.0000 1779.2059 -7297.2461 303.5556 -9076.4520 -7406.5985 300.0562 217.1679 268.7466 30436.3991 32.6150 111.7711
TCL: Running FEP window  18: Lambda1 0.8500000000000002 Lambda2 0.9000000000000002 [dLambda 0.050000000000000044]
TCL: Setting parameter firsttimestep to 0
TCL: Setting parameter alchLambda to 0.8500000000000002
Info: NONBONDED TABLE R-SQUARED SPACING: 0.0625
Info: NONBONDED TABLE SIZE: 705 POINTS
TCL: Setting parameter alchLambda2 to 0.9000000000000002
Info: NONBONDED TABLE R-SQUARED SPACING: 0.0625
Info: NONBONDED TABLE SIZE: 705 POINTS
TCL: Running for 1500000 steps
ETITLE: TS BOND ANGLE DIHED IMPRP ELECT VDW BOUNDARY MISC KINETIC TOTAL TEMP POTENTIAL TOTALAVG TEMPAVG PRESSURE GPRESSURE VOLUME PRESSAVG GPRESSAVG
ENERGY: 0 2.3377 17.5655 4.2858 0.0000 -10525.8841 1425.8651 0.0000 0.0000 1778.3048 -7297.5252 303.4018 -9075.8300 -7297.5252 303.4018 213.5744 296.3143 30436.3991 213.5744 296.3143
ENERGY: 300000 3.0397 13.7967 5.6492 0.0000 -10447.3256 1301.3984 0.0000 0.0000 1725.0772 -7398.3644 294.3205 -9123.4416 -7400.3531 296.1553 -1140.9910 -1101.8196 30869.2247 -486.4250 -411.3225
ENERGY: 600000 1.4919 14.1580 5.9698 0.0000 -10492.3515 1286.0073 0.0000 0.0000 1741.4599 -7443.2646 297.1156 -9184.7245 -7404.9350 296.6510 -1213.2241 -1104.5529 30366.1640 -476.1407 -399.7779
ENERGY: 900000 2.3923 16.1861 5.2286 0.0000 -10484.5561 1356.6112 0.0000 0.0000 1753.0681 -7351.0698 299.0961 -9104.1378 -7421.5221 297.0914 -611.2576 -470.1679 30451.9842 -462.2088 -383.0014
ENERGY: 1200000 2.5917 11.0597 5.4600 0.0000 -10721.2531 1498.7872 0.0000 0.0000 1753.2985 -7450.0560 299.1354 -9203.3545 -7427.6878 297.4540 657.3732 705.1023 29986.6491 -351.1500 -285.5935
ENERGY: 1500000 3.6262 9.6196 7.5102 0.0000 -10580.2888 1385.0433 0.0000 0.0000 1777.8908 -7396.5987 303.3312 -9174.4895 -7415.8697 297.8426 -169.7805 -52.5917 30393.0018 -298.0616 -227.9292
TCL: Running FEP window  19: Lambda1 0.9000000000000002 Lambda2 0.9500000000000003 [dLambda 0.050000000000000044]
TCL: Setting parameter firsttimestep to 0
TCL: Setting parameter alchLambda to 0.9000000000000002
Info: NONBONDED TABLE R-SQUARED SPACING: 0.0625
Info: NONBONDED TABLE SIZE: 705 POINTS
TCL: Setting parameter alchLambda2 to 0.9500000000000003
Info: NONBONDED TABLE R-SQUARED SPACING: 0.0625
Info: NONBONDED TABLE SIZE: 705 POINTS
TCL: Running for 1500000 steps
ETITLE: TS BOND ANGLE DIHED IMPRP ELECT VDW BOUNDARY MISC KINETIC TOTAL TEMP POTENTIAL TOTALAVG TEMPAVG PRESSURE GPRESSURE VOLUME PRESSAVG GPRESSAVG
ENERGY: 0 3.6262 9.6196 7.5102 0.0000 -10580.3130 1385.4968 0.0000 0.0000 1777.0405 -7397.0197 303.1861 -9174.0602 -7397.0197 303.1861 -121.7054 -29.6350 30393.0018 -121.7054 -29.6350
ENERGY: 300000 1.2909 16.3083 4.3366 0.0000 -10519.6660 1397.5753 0.0000 0.0000 1779.7051 -7320.4498 303.6407 -9100.1549 -7378.9799 302.9697 -206.4166 -193.3621 30728.3053 76.9187 147.9570
ENERGY: 600000 1.4232 24.7362 7.2807 0.0000 -10600.5918 1403.2050 0.0000 0.0000 1786.3676 -7377.5791 304.7774 -9163.9467 -7399.1555 300.5243 -318.7681 -274.5305 30762.4599 -105.4269 -42.2675
ENERGY: 900000 2.9401 13.1161 5.2913 0.0000 -10566.7503 1414.6296 0.0000 0.0000 1698.5394 -7432.2339 289.7928 -9130.7733 -7400.9847 300.0508 -250.8434 -195.9559 30756.0563 -78.4833 -15.6439
ENERGY: 1200000 1.0204 17.0440 5.5598 0.0000 -10588.6953 1481.1130 0.0000 0.0000 1756.4065 -7327.5516 299.6657 -9083.9581 -7395.4743 300.5548 869.4626 938.5157 29851.9343 59.5392 127.4135
ENERGY: 1500000 1.7039 10.8811 3.6544 0.0000 -10539.3289 1398.2515 0.0000 0.0000 1816.9206 -7307.9174 309.9902 -9124.8380 -7387.5000 301.5227 -52.3712 -41.7422 30656.6547 88.4675 153.9419
TCL: Running FEP window  20: Lambda1 0.9500000000000003 Lambda2 1.0    [dLambda 0.04999999999999971]
TCL: Setting parameter firsttimestep to 0
TCL: Setting parameter alchLambda to 0.9500000000000003
Info: NONBONDED TABLE R-SQUARED SPACING: 0.0625
Info: NONBONDED TABLE SIZE: 705 POINTS
TCL: Setting parameter alchLambda2 to 1.0
Info: NONBONDED TABLE R-SQUARED SPACING: 0.0625
Info: NONBONDED TABLE SIZE: 705 POINTS
TCL: Running for 1500000 steps
ETITLE: TS BOND ANGLE DIHED IMPRP ELECT VDW BOUNDARY MISC KINETIC TOTAL TEMP POTENTIAL TOTALAVG TEMPAVG PRESSURE GPRESSURE VOLUME PRESSAVG GPRESSAVG
ENERGY: 0 1.7039 10.8811 3.6544 0.0000 -10539.3214 1398.2567 0.0000 0.0000 1816.0573 -7308.7681 309.8429 -9124.8253 -7308.7681 309.8429 -130.1118 -22.1371 30656.6547 -130.1118 -22.1371
ENERGY: 300000 1.7443 12.5692 5.5541 0.0000 -10463.5582 1359.1137 0.0000 0.0000 1731.3845 -7353.1923 295.3966 -9084.5769 -7324.1181 301.3825 -278.1935 -219.6711 30521.1436 -484.9001 -399.2707
ENERGY: 600000 1.9084 17.0401 4.9056 0.0000 -10477.4641 1388.6862 0.0000 0.0000 1780.5273 -7284.3964 303.7810 -9064.9236 -7326.9545 302.0666 -125.9135 -86.0402 30909.9489 -429.6033 -366.4265
ENERGY: 900000 1.2426 14.7188 4.3773 0.0000 -10545.0066 1364.4204 0.0000 0.0000 1747.1722 -7413.0753 298.0902 -9160.2475 -7351.6944 302.0712 -598.7467 -584.4936 30676.1352 -296.1570 -238.1283
ENERGY: 1200000 3.0073 11.3231 6.4833 0.0000 -10460.0196 1341.2745 0.0000 0.0000 1742.8311 -7355.1002 297.3495 -9097.9313 -7363.0521 300.3961 -288.1446 -350.6207 30249.2352 -234.6806 -189.0458
ENERGY: 1500000 4.8836 11.5112 3.9471 0.0000 -10737.9927 1488.6927 0.0000 0.0000 1728.3643 -7500.5937 294.8813 -9228.9581 -7373.0677 300.3742 486.9592 508.4881 30076.0986 -219.9871 -173.9005
TCL: Exiting due to exit command.
