Info: SIMULATION PARAMETERS:
Info: TIMESTEP               2
Info: NUMBER OF STEPS        0
Info: STEPS PER CYCLE        10
Info: PERIODIC CELL BASIS 1  31.7214 0 0
Info: PERIODIC CELL BASIS 2  0 29.3505 0
Info: PERIODIC CELL BASIS 3  0 0 32.2306
Info: PERIODIC CELL CENTER   0 0 0
Info: WRAPPING WATERS AROUND PERIODIC BOUNDARIES ON OUTPUT.
Info: WRAPPING ALL CLUSTERS AROUND PERIODIC BOUNDARIES ON OUTPUT.
Info: FIRST LDB TIMESTEP     50
Info: LAST LDB TIMESTEP     -1
Info: HOM BACKGROUND SCALING 1
Info: PME BACKGROUND SCALING 1
Info: MIN ATOMS PER PATCH    40
Info: EMPTY PATCH LOAD       40 ATOMS
Info: VELOCITY FILE          mobley_8514745_equil.vel
Info: CENTER OF MASS MOVING INITIALLY? NO
Info: DIELECTRIC             1
Info: EXCLUDE                SCALED ONE-FOUR
Info: 1-4 ELECTROSTATICS SCALED BY 0.833333
Info: MODIFIED 1-4 VDW PARAMETERS WILL BE USED
Info: DCD FILENAME           mobley_8514745_prod.dcd
Info: DCD FREQUENCY          100000
Info: DCD FIRST STEP         100000
Info: DCD FILE WILL CONTAIN UNIT CELL DATA
Info: XST FILENAME           mobley_8514745_prod.xst
Info: XST FREQUENCY          100000
Info: NO VELOCITY DCD OUTPUT
Info: NO FORCE DCD OUTPUT
Info: OUTPUT FILENAME        mobley_8514745_prod
Info: BINARY OUTPUT FILES WILL BE USED
Info: RESTART FILENAME       mobley_8514745_prod.restart
Info: RESTART FREQUENCY      100000
Info: BINARY RESTART FILES WILL BE USED
Info: CUTOFF                 9
Info: PAIRLIST DISTANCE      11
Info: PAIRLIST SHRINK RATE   0.01
Info: PAIRLIST GROW RATE     0.01
Info: PAIRLIST TRIGGER       0.3
Info: PAIRLISTS PER CYCLE    2
Info: PAIRLISTS ENABLED
Info: MARGIN                 2
Info: HYDROGEN GROUP CUTOFF  2.5
Info: PATCH DIMENSION        15.5
Info: ENERGY OUTPUT STEPS    100000
Info: ENERGY EVALUATION STEPS    100000
Info: OUTPUT ENERGY PRECISION 4
Info: CROSSTERM ENERGY INCLUDED IN DIHEDRAL
Info: TIMING OUTPUT STEPS    1000000
Info: PRESSURE OUTPUT STEPS  100000
Info: ALCHEMICAL FEP ON
Info: FEP CURRENT LAMBDA VALUE     1
Info: FEP COMPARISON LAMBDA VALUE  0.95
Info: FEP INTRA-ALCHEMICAL NON-BONDED INTERACTIONS WILL BE RETAINED
Info: FEP INTRA-ALCHEMICAL BONDED INTERACTIONS WILL BE RETAINED
Info: FEP VDW SHIFTING COEFFICIENT 5
Info: FEP ELEC. ACTIVE FOR ANNIHILATED PARTICLES BETWEEN LAMBDA = 0 AND LAMBDA = 0.5
Info: FEP ELEC. ACTIVE FOR EXNIHILATED PARTICLES BETWEEN LAMBDA = 0.5 AND LAMBDA = 1
Info: FEP VDW ACTIVE FOR ANNIHILATED PARTICLES BETWEEN LAMBDA = 0 AND LAMBDA = 1
Info: FEP VDW ACTIVE FOR EXNIHILATED PARTICLES BETWEEN LAMBDA = 0 AND LAMBDA = 1
Info: FEP BOND ACTIVE FOR ANNIHILATED PARTICLES BETWEEN LAMBDA = 1 AND LAMBDA = 1
Info: FEP BOND ACTIVE FOR EXNIHILATED PARTICLES BETWEEN LAMBDA = 0 AND LAMBDA = 0
Info: LANGEVIN DYNAMICS ACTIVE
Info: LANGEVIN TEMPERATURE   300
Info: LANGEVIN USING BBK INTEGRATOR
Info: LANGEVIN DAMPING COEFFICIENT IS 1 INVERSE PS
Info: LANGEVIN DYNAMICS APPLIED TO HYDROGENS
Info: LANGEVIN PISTON PRESSURE CONTROL ACTIVE
Info:        TARGET PRESSURE IS 1.01325 BAR
Info:     OSCILLATION PERIOD IS 50 FS
Info:             DECAY TIME IS 25 FS
Info:     PISTON TEMPERATURE IS 300 K
Info:       PRESSURE CONTROL IS GROUP-BASED
Info:    INITIAL STRAIN RATE IS 0.000624328 0.000624328 0.000624328
Info:       CELL FLUCTUATION IS ISOTROPIC
Info: PARTICLE MESH EWALD (PME) ACTIVE
Info: PME TOLERANCE               1e-06
Info: PME EWALD COEFFICIENT       0.348832
Info: PME INTERPOLATION ORDER     4
Info: PME GRID DIMENSIONS         32 32 36
Info: PME MAXIMUM GRID SPACING    1
Info: PME CALCULATION WILL BE PERFORMED ON GPU
Info: FULL ELECTROSTATIC EVALUATION FREQUENCY      2
Info: USING VERLET I (r-RESPA) MTS SCHEME.
Info: C1 SPLITTING OF LONG RANGE ELECTROSTATICS
Info: PLACING ATOMS IN PATCHES BY HYDROGEN GROUPS
Info: RIGID BONDS TO HYDROGEN : ALL
Info:         ERROR TOLERANCE : 1e-08
Info:          MAX ITERATIONS : 100
Info: RIGID WATER USING SETTLE ALGORITHM
Info: RANDOM NUMBER SEED     1743980092
Info: USE HYDROGEN BONDS?    NO
Info: Using AMBER format force field!
Info: AMBER PARM FILE        mobley_8514745.prmtop
Info: COORDINATE PDB         mobley_8514745.pdb
Info: Exclusions will be read from PARM file!
Info: SCNB (VDW SCALING)     2
Info: USING ARITHMETIC MEAN TO COMBINE L-J SIGMA PARAMETERS
Info: BINARY COORDINATES     mobley_8514745_equil.coor
Info: SUMMARY OF PARAMETERS:
Info: 9 BONDS
Info: 12 ANGLES
Info:   12 HARMONIC
Info:   0 COSINE-BASED
Info: 20 DIHEDRAL
Info: 0 IMPROPER
Info: 0 CROSSTERM
Info: 0 VDW
Info: 36 VDW_PAIRS
Info: 0 NBTHOLE_PAIRS
Info: To read alchdata from file: mobley_8514745.pdb
Info: To read alchflag data from column: 5
Info: STRUCTURE SUMMARY:
Info: 2915 ATOMS
Info: 2914 BONDS
Info: 40 ANGLES
Info: 64 DIHEDRALS
Info: 0 IMPROPERS
Info: 0 CROSSTERMS
Info: 3001 EXCLUSIONS
Info: 2906 RIGID BONDS
Info: ALCH: 0 ATOMS TO DISAPPEAR IN FINAL STATE
Info: ALCH: 23 ATOMS TO APPEAR IN FINAL STATE
Info: 5839 DEGREES OF FREEDOM
Info: 973 HYDROGEN GROUPS
Info: 4 ATOMS IN LARGEST HYDROGEN GROUP
Info: 973 MIGRATION GROUPS
Info: 4 ATOMS IN LARGEST MIGRATION GROUP
Info: TOTAL MASS = 17497.6 amu
Info: TOTAL CHARGE = -0.000400051 e
Info: MASS DENSITY = 0.968282 g/cm^3
Info: ATOM DENSITY = 0.097141 atoms/A^3
Info: ADDED 0 IMPLICIT EXCLUSIONS
Info: NONBONDED TABLE R-SQUARED SPACING: 0.0625
Info: NONBONDED TABLE SIZE: 705 POINTS
Info: REMOVING COM VELOCITY -0.0982091 -0.0839934 0.000551273
Info: Use 3D box decompostion in PME FFT.
Info: Updated CUDA force table with 4096 elements.
Info: Updated CUDA LJ table with 8 x 8 elements.
Info: Found 26 unique exclusion lists needing 84 bytes
TCL: Running for 1500000 steps
ETITLE: TS BOND ANGLE DIHED IMPRP ELECT VDW BOUNDARY MISC KINETIC TOTAL TEMP POTENTIAL TOTALAVG TEMPAVG PRESSURE GPRESSURE VOLUME PRESSAVG GPRESSAVG
ENERGY: 0 2.8671 7.3735 5.9052 0.0000 -10580.3420 1374.8068 0.0000 0.0000 1758.1047 -7431.2847 303.0377 -9189.3894 -7431.2847 303.0377 -374.1757 -293.7986 30007.9192 -374.1757 -293.7986
ENERGY: 300000 2.1913 11.4476 8.9987 0.0000 -10512.8415 1380.9301 0.0000 0.0000 1758.6623 -7350.6115 303.1338 -9109.2738 -7414.2910 300.6748 89.6613 126.6930 29504.9869 -88.3573 -4.9688
ENERGY: 600000 4.3135 15.4841 7.2898 0.0000 -10567.8604 1373.4863 0.0000 0.0000 1712.0468 -7455.2398 295.0989 -9167.2866 -7405.1228 298.3989 -438.8916 -337.5193 30226.7242 1.6971 81.3734
ENERGY: 900000 2.5590 10.2346 8.6940 0.0000 -10529.4916 1402.3667 0.0000 0.0000 1747.4951 -7358.1422 301.2090 -9105.6373 -7404.6435 298.9745 -92.3322 -27.1523 29941.4884 -8.7530 61.3515
ENERGY: 1200000 1.0894 13.4991 7.8406 0.0000 -10423.6790 1321.7300 0.0000 0.0000 1743.2020 -7336.3179 300.4690 -9079.5199 -7395.2362 299.1323 -594.3323 -516.6537 30214.4939 -174.8818 -104.3943
ENERGY: 1500000 2.2257 12.9554 5.6374 0.0000 -10479.0242 1375.7360 0.0000 0.0000 1760.1766 -7322.2931 303.3948 -9082.4697 -7385.2046 299.5370 -130.6228 -55.3316 30009.3108 -217.3445 -145.5325
TCL: Running FEP window   2: Lambda1 0.95   Lambda2 0.8999999999999999 [dLambda -0.050000000000000044]
TCL: Setting parameter firsttimestep to 0
TCL: Setting parameter alchLambda to 0.95
Info: NONBONDED TABLE R-SQUARED SPACING: 0.0625
Info: NONBONDED TABLE SIZE: 705 POINTS
TCL: Setting parameter alchLambda2 to 0.8999999999999999
Info: NONBONDED TABLE R-SQUARED SPACING: 0.0625
Info: NONBONDED TABLE SIZE: 705 POINTS
TCL: Running for 1500000 steps
ETITLE: TS BOND ANGLE DIHED IMPRP ELECT VDW BOUNDARY MISC KINETIC TOTAL TEMP POTENTIAL TOTALAVG TEMPAVG PRESSURE GPRESSURE VOLUME PRESSAVG GPRESSAVG
ENERGY: 0 2.2257 12.9554 5.6374 0.0000 -10477.8818 1375.8402 0.0000 0.0000 1759.3128 -7321.9102 303.2459 -9081.2230 -7321.9102 303.2459 -159.0843 -69.6003 30009.3108 -159.0843 -69.6003
ENERGY: 300000 1.7025 10.5882 6.8361 0.0000 -10750.0983 1543.3913 0.0000 0.0000 1765.1959 -7422.3844 304.2600 -9187.5802 -7389.1011 301.5896 694.1618 798.8260 30211.4294 2.5840 79.8570
ENERGY: 600000 2.0182 9.8046 7.0093 0.0000 -10579.8543 1422.7258 0.0000 0.0000 1779.1277 -7359.1687 306.6613 -9138.2964 -7375.8334 301.6505 167.3882 128.6126 29879.6004 -30.0709 15.4520
ENERGY: 900000 2.0432 9.6680 8.5881 0.0000 -10557.4881 1395.0215 0.0000 0.0000 1729.9620 -7412.2053 298.1868 -9142.1674 -7380.1371 301.6016 75.0392 128.2516 29542.7296 31.0635 79.3272
ENERGY: 1200000 3.1685 9.9627 8.7675 0.0000 -10481.4155 1356.8031 0.0000 0.0000 1749.8090 -7352.9048 301.6078 -9102.7138 -7373.9843 301.7872 -601.3622 -526.3382 30486.0651 -15.1818 40.3058
ENERGY: 1500000 3.7210 9.9227 5.3241 0.0000 -10603.7705 1426.9076 0.0000 0.0000 1769.2651 -7388.6300 304.9614 -9157.8951 -7365.1693 302.0230 -140.4796 -24.9208 30075.6953 -49.4995 8.4425
TCL: Running FEP window   3: Lambda1 0.8999999999999999 Lambda2 0.8499999999999999 [dLambda -0.050000000000000044]
TCL: Setting parameter firsttimestep to 0
TCL: Setting parameter alchLambda to 0.8999999999999999
Info: NONBONDED TABLE R-SQUARED SPACING: 0.0625
Info: NONBONDED TABLE SIZE: 705 POINTS
TCL: Setting parameter alchLambda2 to 0.8499999999999999
Info: NONBONDED TABLE R-SQUARED SPACING: 0.0625
Info: NONBONDED TABLE SIZE: 705 POINTS
TCL: Running for 1500000 steps
ETITLE: TS BOND ANGLE DIHED IMPRP ELECT VDW BOUNDARY MISC KINETIC TOTAL TEMP POTENTIAL TOTALAVG TEMPAVG PRESSURE GPRESSURE VOLUME PRESSAVG GPRESSAVG
ENERGY: 0 3.7210 9.9227 5.3241 0.0000 -10602.0084 1427.1544 0.0000 0.0000 1768.4050 -7387.4812 304.8131 -9155.8863 -7387.4812 304.8131 -127.7796 -31.7288 30075.6953 -127.7796 -31.7288
ENERGY: 300000 5.0090 13.5993 5.7658 0.0000 -10537.4711 1449.6239 0.0000 0.0000 1682.2235 -7381.2495 289.9583 -9063.4730 -7420.7505 301.0532 685.4012 717.6737 29657.1904 162.3674 223.8014
ENERGY: 600000 4.0602 10.1321 5.9741 0.0000 -10581.6133 1337.9351 0.0000 0.0000 1715.1559 -7508.3559 295.6348 -9223.5118 -7402.9729 300.6066 -948.0001 -846.7531 29937.2064 -148.9231 -78.7510
ENERGY: 900000 3.0599 8.1564 7.7385 0.0000 -10595.8010 1417.4570 0.0000 0.0000 1777.7170 -7381.6722 306.4182 -9159.3892 -7400.6078 300.7538 -80.8153 -9.4545 29964.9819 -172.6787 -108.2657
ENERGY: 1200000 2.0944 11.0313 8.4560 0.0000 -10620.3156 1406.1302 0.0000 0.0000 1752.5245 -7440.0792 302.0759 -9192.6037 -7393.8072 301.5942 8.4050 82.1357 29728.7388 -139.1021 -75.7249
ENERGY: 1500000 4.9657 11.9926 9.7623 0.0000 -10451.9273 1289.3282 0.0000 0.0000 1696.6269 -7439.2515 292.4410 -9135.8785 -7393.7559 300.9831 -964.6227 -900.9523 29929.7534 -197.6319 -137.9270
TCL: Running FEP window   4: Lambda1 0.8499999999999999 Lambda2 0.7999999999999998 [dLambda -0.050000000000000044]
TCL: Setting parameter firsttimestep to 0
TCL: Setting parameter alchLambda to 0.8499999999999999
Info: NONBONDED TABLE R-SQUARED SPACING: 0.0625
Info: NONBONDED TABLE SIZE: 705 POINTS
TCL: Setting parameter alchLambda2 to 0.7999999999999998
Info: NONBONDED TABLE R-SQUARED SPACING: 0.0625
Info: NONBONDED TABLE SIZE: 705 POINTS
TCL: Running for 1500000 steps
ETITLE: TS BOND ANGLE DIHED IMPRP ELECT VDW BOUNDARY MISC KINETIC TOTAL TEMP POTENTIAL TOTALAVG TEMPAVG PRESSURE GPRESSURE VOLUME PRESSAVG GPRESSAVG
ENERGY: 0 4.9657 11.9926 9.7623 0.0000 -10451.4415 1289.5411 0.0000 0.0000 1695.7636 -7439.4162 292.2922 -9135.1798 -7439.4162 292.2922 -986.0574 -910.4830 29929.7534 -986.0574 -910.4830
ENERGY: 300000 3.7058 12.6422 6.8311 0.0000 -10475.9500 1380.5056 0.0000 0.0000 1727.4692 -7344.7961 297.7572 -9072.2653 -7386.9447 298.1106 -30.7436 -21.5633 29889.4182 -258.1769 -226.2694
ENERGY: 600000 1.6597 8.9473 7.5902 0.0000 -10707.3955 1529.4365 0.0000 0.0000 1783.8954 -7375.8666 307.4831 -9159.7620 -7373.0829 300.1662 886.5234 950.6422 29706.8153 -85.9313 -50.7165
ENERGY: 900000 2.9928 10.6163 6.9156 0.0000 -10544.2888 1401.2381 0.0000 0.0000 1694.2728 -7428.2532 292.0352 -9122.5260 -7395.2802 299.0039 -102.4508 -37.7478 30119.4353 -93.1928 -42.5195
ENERGY: 1200000 3.1706 12.2679 6.1975 0.0000 -10496.9734 1335.9933 0.0000 0.0000 1713.0157 -7426.3284 295.2659 -9139.3441 -7392.0093 299.0303 -691.6487 -705.4257 29926.3325 -74.2841 -23.5383
ENERGY: 1500000 1.7031 5.9859 7.0971 0.0000 -10547.4870 1337.1967 0.0000 0.0000 1752.0370 -7443.4673 301.9918 -9195.5043 -7392.2687 299.0722 -869.3348 -868.3231 29998.5857 -149.2998 -104.3296
TCL: Running FEP window   5: Lambda1 0.7999999999999998 Lambda2 0.7499999999999998 [dLambda -0.050000000000000044]
TCL: Setting parameter firsttimestep to 0
TCL: Setting parameter alchLambda to 0.7999999999999998
Info: NONBONDED TABLE R-SQUARED SPACING: 0.0625
Info: NONBONDED TABLE SIZE: 705 POINTS
TCL: Setting parameter alchLambda2 to 0.7499999999999998
Info: NONBONDED TABLE R-SQUARED SPACING: 0.0625
Info: NONBONDED TABLE SIZE: 705 POINTS
TCL: Running for 1500000 steps
ETITLE: TS BOND ANGLE DIHED IMPRP ELECT VDW BOUNDARY MISC KINETIC TOTAL TEMP POTENTIAL TOTALAVG TEMPAVG PRESSURE GPRESSURE VOLUME PRESSAVG GPRESSAVG
ENERGY: 0 1.7031 5.9859 7.0971 0.0000 -10547.0132 1337.4125 0.0000 0.0000 1751.1761 -7443.6387 301.8434 -9194.8147 -7443.6387 301.8434 -952.0183 -878.2289 29998.5857 -952.0183 -878.2289
ENERGY: 300000 3.4634 13.1189 11.2698 0.0000 -10450.4382 1325.4150 0.0000 0.0000 1719.3802 -7377.7909 296.3629 -9097.1711 -7397.1431 301.0051 -889.5738 -809.4854 30613.7373 -581.7521 -494.0401
ENERGY: 600000 1.7876 8.8696 9.3380 0.0000 -10405.9256 1320.3120 0.0000 0.0000 1760.6244 -7304.9940 303.4720 -9065.6184 -7379.0225 301.8262 -321.2302 -297.5010 29764.4560 -355.5085 -285.8569
ENERGY: 900000 4.0251 11.5380 8.8119 0.0000 -10626.6423 1386.2013 0.0000 0.0000 1770.1638 -7445.9022 305.1163 -9216.0660 -7394.1425 300.1147 -794.3749 -646.6534 30177.0547 -188.3680 -116.0806
ENERGY: 1200000 5.0630 11.0932 7.3052 0.0000 -10537.5452 1373.1464 0.0000 0.0000 1756.2256 -7384.7118 302.7138 -9140.9373 -7381.1121 300.6844 -554.1869 -506.6456 30355.9412 -221.3836 -163.1525
ENERGY: 1500000 2.1349 9.3303 8.9234 0.0000 -10461.4089 1356.7285 0.0000 0.0000 1701.4258 -7382.8659 293.2682 -9084.2917 -7380.7869 300.1564 -489.1871 -475.3489 30274.5127 -205.1789 -149.5469
TCL: Running FEP window   6: Lambda1 0.7499999999999998 Lambda2 0.6999999999999997 [dLambda -0.050000000000000044]
TCL: Setting parameter firsttimestep to 0
TCL: Setting parameter alchLambda to 0.7499999999999998
Info: NONBONDED TABLE R-SQUARED SPACING: 0.0625
Info: NONBONDED TABLE SIZE: 705 POINTS
TCL: Setting parameter alchLambda2 to 0.6999999999999997
Info: NONBONDED TABLE R-SQUARED SPACING: 0.0625
Info: NONBONDED TABLE SIZE: 705 POINTS
TCL: Running for 1500000 steps
ETITLE: TS BOND ANGLE DIHED IMPRP ELECT VDW BOUNDARY MISC KINETIC TOTAL TEMP POTENTIAL TOTALAVG TEMPAVG PRESSURE GPRESSURE VOLUME PRESSAVG GPRESSAVG
ENERGY: 0 2.1349 9.3303 8.9234 0.0000 -10460.9760 1356.3988 0.0000 0.0000 1700.5161 -7383.6725 293.1114 -9084.1886 -7383.6725 293.1114 -564.2211 -495.1466 30274.5127 -564.2211 -495.1466
ENERGY: 300000 2.5849 12.1725 6.9147 0.0000 -10224.3637 1214.4334 0.0000 0.0000 1725.3232 -7262.9351 297.3873 -8988.2582 -7335.8229 297.3993 -1144.5133 -1063.2970 30225.9132 -425.3146 -374.4526
ENERGY: 600000 1.0166 9.8538 5.8884 0.0000 -10573.5726 1358.8436 0.0000 0.0000 1743.6869 -7454.2832 300.5526 -9197.9702 -7362.4090 299.5964 -531.8898 -470.5209 30039.5170 -136.8730 -73.7371
ENERGY: 900000 2.4844 9.5244 7.7374 0.0000 -10469.4377 1376.1241 0.0000 0.0000 1813.2299 -7260.3375 312.5394 -9073.5674 -7354.3723 301.1717 -312.7147 -265.4483 30622.7744 -219.6868 -163.5007
ENERGY: 1200000 2.9642 13.7789 7.2995 0.0000 -10481.6345 1347.3356 0.0000 0.0000 1719.0254 -7391.2309 296.3017 -9110.2563 -7366.6543 301.1360 -686.0870 -629.1039 30325.8652 -206.5113 -147.4871
ENERGY: 1500000 0.5719 9.6364 7.1183 0.0000 -10573.2991 1393.1100 0.0000 0.0000 1782.1676 -7380.6948 307.1853 -9162.8625 -7365.7315 301.6588 -539.8031 -385.6019 30243.6837 -271.3480 -205.3069
TCL: Running FEP window   7: Lambda1 0.6999999999999997 Lambda2 0.6499999999999997 [dLambda -0.050000000000000044]
TCL: Setting parameter firsttimestep to 0
TCL: Setting parameter alchLambda to 0.6999999999999997
Info: NONBONDED TABLE R-SQUARED SPACING: 0.0625
Info: NONBONDED TABLE SIZE: 705 POINTS
TCL: Setting parameter alchLambda2 to 0.6499999999999997
Info: NONBONDED TABLE R-SQUARED SPACING: 0.0625
Info: NONBONDED TABLE SIZE: 705 POINTS
TCL: Running for 1500000 steps
ETITLE: TS BOND ANGLE DIHED IMPRP ELECT VDW BOUNDARY MISC KINETIC TOTAL TEMP POTENTIAL TOTALAVG TEMPAVG PRESSURE GPRESSURE VOLUME PRESSAVG GPRESSAVG
ENERGY: 0 0.5719 9.6364 7.1183 0.0000 -10572.5717 1392.3481 0.0000 0.0000 1781.3223 -7381.5747 307.0396 -9162.8970 -7381.5747 307.0396 -501.6411 -404.1994 30243.6837 -501.6411 -404.1994
ENERGY: 300000 1.0657 9.0516 8.7345 0.0000 -10576.6126 1438.2357 0.0000 0.0000 1719.8610 -7399.6642 296.4458 -9119.5252 -7369.5810 300.6816 273.8436 307.2539 30012.3257 -81.7400 -26.1333
ENERGY: 600000 5.1658 9.6670 8.5811 0.0000 -10752.9629 1436.5024 0.0000 0.0000 1704.6488 -7588.3977 293.8237 -9293.0465 -7420.2422 300.0148 -107.6044 -79.8672 29242.8087 -226.4629 -177.5689
ENERGY: 900000 3.8128 14.9130 6.3877 0.0000 -10448.9670 1395.6639 0.0000 0.0000 1761.0979 -7267.0917 303.5536 -9028.1896 -7408.4817 300.1206 109.8654 157.9904 29935.9000 -135.1051 -87.8567
ENERGY: 1200000 4.6985 9.8367 6.4077 0.0000 -10519.0476 1423.1955 0.0000 0.0000 1713.7038 -7361.2055 295.3845 -9074.9093 -7398.0913 299.3285 32.2568 123.0980 30147.4743 -69.2444 -22.4850
ENERGY: 1500000 2.9361 8.5781 7.6137 0.0000 -10486.1846 1369.2741 0.0000 0.0000 1721.2889 -7376.4938 296.6919 -9097.7827 -7401.7442 299.1429 -332.2394 -250.1645 30047.5986 -117.0586 -63.3128
TCL: Running FEP window   8: Lambda1 0.6499999999999997 Lambda2 0.5999999999999996 [dLambda -0.050000000000000044]
TCL: Setting parameter firsttimestep to 0
TCL: Setting parameter alchLambda to 0.6499999999999997
Info: NONBONDED TABLE R-SQUARED SPACING: 0.0625
Info: NONBONDED TABLE SIZE: 705 POINTS
TCL: Setting parameter alchLambda2 to 0.5999999999999996
Info: NONBONDED TABLE R-SQUARED SPACING: 0.0625
Info: NONBONDED TABLE SIZE: 705 POINTS
TCL: Running for 1500000 steps
ETITLE: TS BOND ANGLE DIHED IMPRP ELECT VDW BOUNDARY MISC KINETIC TOTAL TEMP POTENTIAL TOTALAVG TEMPAVG PRESSURE GPRESSURE VOLUME PRESSAVG GPRESSAVG
ENERGY: 0 2.9361 8.5781 7.6137 0.0000 -10485.5877 1369.7173 0.0000 0.0000 1720.4360 -7376.3065 296.5449 -9096.7424 -7376.3065 296.5449 -346.6421 -258.1013 30047.5986 -346.6421 -258.1013
ENERGY: 300000 1.5689 9.2191 6.1737 0.0000 -10577.7692 1404.9710 0.0000 0.0000 1801.2743 -7354.5621 310.4787 -9155.8364 -7340.9335 305.8943 -216.4488 -214.4839 29952.3469 -290.5649 -235.5444
ENERGY: 600000 5.1529 8.4911 10.6051 0.0000 -10633.7345 1471.2495 0.0000 0.0000 1752.0286 -7386.2073 301.9904 -9138.2359 -7375.4361 303.9758 782.1329 831.5060 29489.4687 -60.1703 -7.9063
ENERGY: 900000 1.6092 13.5164 9.7890 0.0000 -10735.1852 1487.8236 0.0000 0.0000 1718.1875 -7504.2595 296.1573 -9222.4470 -7377.2981 302.8969 451.5403 481.3099 29648.3451 144.1979 187.2784
ENERGY: 1200000 2.0596 9.0875 10.3455 0.0000 -10520.8392 1385.6104 0.0000 0.0000 1782.6935 -7331.0427 307.2760 -9113.7362 -7361.6848 304.0405 -173.1036 -126.3841 29996.6505 184.2819 223.5862
ENERGY: 1500000 0.9947 7.3349 9.9187 0.0000 -10459.7522 1338.9545 0.0000 0.0000 1741.5773 -7360.9722 300.1889 -9102.5495 -7362.9617 303.6717 -664.5851 -603.2992 30117.9033 82.3355 124.3155
TCL: Running FEP window   9: Lambda1 0.5999999999999996 Lambda2 0.5499999999999996 [dLambda -0.050000000000000044]
TCL: Setting parameter firsttimestep to 0
TCL: Setting parameter alchLambda to 0.5999999999999996
Info: NONBONDED TABLE R-SQUARED SPACING: 0.0625
Info: NONBONDED TABLE SIZE: 705 POINTS
TCL: Setting parameter alchLambda2 to 0.5499999999999996
Info: NONBONDED TABLE R-SQUARED SPACING: 0.0625
Info: NONBONDED TABLE SIZE: 705 POINTS
TCL: Running for 1500000 steps
ETITLE: TS BOND ANGLE DIHED IMPRP ELECT VDW BOUNDARY MISC KINETIC TOTAL TEMP POTENTIAL TOTALAVG TEMPAVG PRESSURE GPRESSURE VOLUME PRESSAVG GPRESSAVG
ENERGY: 0 0.9947 7.3349 9.9187 0.0000 -10459.2508 1338.7936 0.0000 0.0000 1740.7474 -7361.4615 300.0459 -9102.2090 -7361.4615 300.0459 -678.9322 -614.8384 30117.9033 -678.9322 -614.8384
ENERGY: 300000 2.5136 10.9878 6.5113 0.0000 -10542.7118 1456.3955 0.0000 0.0000 1787.7579 -7278.5456 308.1489 -9066.3036 -7314.6890 304.2432 572.8835 696.4430 29901.9256 -230.2212 -144.4936
ENERGY: 600000 0.6659 10.2534 6.9110 0.0000 -10593.9008 1447.5456 0.0000 0.0000 1780.8778 -7347.6470 306.9630 -9128.5249 -7314.4314 303.9307 136.9188 203.2440 29785.1754 -212.9734 -119.3408
ENERGY: 900000 1.1540 10.0664 9.6223 0.0000 -10661.8027 1512.5959 0.0000 0.0000 1757.5310 -7370.8329 302.9388 -9128.3639 -7348.6789 301.8361 757.4541 822.9280 29851.3905 -179.0794 -86.4811
ENERGY: 1200000 0.5156 12.3641 7.6347 0.0000 -10553.8614 1381.8576 0.0000 0.0000 1744.3522 -7407.1373 300.6672 -9151.4895 -7362.1957 301.5609 -321.9006 -266.8681 30022.7260 -181.5402 -91.2959
ENERGY: 1500000 4.6144 13.0994 8.9797 0.0000 -10538.2704 1378.9015 0.0000 0.0000 1728.7217 -7403.9537 297.9731 -9132.6754 -7366.6750 302.2291 -180.1552 -147.8347 29877.5011 -183.4467 -104.5500
TCL: Running FEP window  10: Lambda1 0.5499999999999996 Lambda2 0.4999999999999996 [dLambda -0.04999999999999999]
TCL: Setting parameter firsttimestep to 0
TCL: Setting parameter alchLambda to 0.5499999999999996
Info: NONBONDED TABLE R-SQUARED SPACING: 0.0625
Info: NONBONDED TABLE SIZE: 705 POINTS
TCL: Setting parameter alchLambda2 to 0.4999999999999996
Info: NONBONDED TABLE R-SQUARED SPACING: 0.0625
Info: NONBONDED TABLE SIZE: 705 POINTS
TCL: Running for 1500000 steps
ETITLE: TS BOND ANGLE DIHED IMPRP ELECT VDW BOUNDARY MISC KINETIC TOTAL TEMP POTENTIAL TOTALAVG TEMPAVG PRESSURE GPRESSURE VOLUME PRESSAVG GPRESSAVG
ENERGY: 0 4.6144 13.0994 8.9797 0.0000 -10537.8090 1378.6753 0.0000 0.0000 1727.8614 -7404.5788 297.8248 -9132.4402 -7404.5788 297.8248 -251.3998 -160.2776 29877.5011 -251.3998 -160.2776
ENERGY: 300000 0.9814 13.4191 8.7015 0.0000 -10546.2355 1371.7468 0.0000 0.0000 1738.1831 -7413.2036 299.6039 -9151.3867 -7387.2603 298.3071 -679.7310 -541.2505 30364.9518 -356.7077 -259.3220
ENERGY: 600000 3.2797 7.6804 6.6377 0.0000 -10235.4707 1192.7729 0.0000 0.0000 1763.0640 -7262.0361 303.8925 -9025.1001 -7375.2878 299.2940 -1636.2046 -1574.4160 30677.4538 -396.1248 -315.9545
ENERGY: 900000 4.9310 9.8813 6.0040 0.0000 -10483.4463 1365.5700 0.0000 0.0000 1736.5730 -7360.4872 299.3263 -9097.0601 -7373.9031 299.6899 -513.9263 -454.0449 30231.0718 -301.2231 -226.6091
ENERGY: 1200000 0.4089 8.6565 8.7803 0.0000 -10659.8945 1460.6873 0.0000 0.0000 1780.2750 -7401.0867 306.8591 -9181.3617 -7368.1232 300.7279 303.2122 431.9064 29747.8028 -188.4752 -110.3650
ENERGY: 1500000 3.4114 7.8020 8.6858 0.0000 -10658.3632 1501.2663 0.0000 0.0000 1755.1521 -7382.0456 302.5288 -9137.1977 -7363.5643 300.1464 601.8976 661.9822 29922.5239 -101.2364 -26.0780
TCL: Running FEP window  11: Lambda1 0.4999999999999996 Lambda2 0.4499999999999996 [dLambda -0.04999999999999999]
TCL: Setting parameter firsttimestep to 0
TCL: Setting parameter alchLambda to 0.4999999999999996
Info: NONBONDED TABLE R-SQUARED SPACING: 0.0625
Info: NONBONDED TABLE SIZE: 705 POINTS
TCL: Setting parameter alchLambda2 to 0.4499999999999996
Info: NONBONDED TABLE R-SQUARED SPACING: 0.0625
Info: NONBONDED TABLE SIZE: 705 POINTS
TCL: Running for 1500000 steps
ETITLE: TS BOND ANGLE DIHED IMPRP ELECT VDW BOUNDARY MISC KINETIC TOTAL TEMP POTENTIAL TOTALAVG TEMPAVG PRESSURE GPRESSURE VOLUME PRESSAVG GPRESSAVG
ENERGY: 0 3.4114 7.8020 8.6858 0.0000 -10658.1417 1501.6457 0.0000 0.0000 1754.2632 -7382.3335 302.3755 -9136.5967 -7382.3335 302.3755 571.8409 655.9555 29922.5239 571.8409 655.9555
ENERGY: 300000 1.4143 8.3929 7.8056 0.0000 -10451.4358 1335.7160 0.0000 0.0000 1744.6673 -7353.4396 300.7215 -9098.1070 -7367.4406 300.3663 -745.1310 -732.3767 30378.0352 -40.2538 19.3262
ENERGY: 600000 1.9273 12.2788 8.7195 0.0000 -10556.6874 1390.8155 0.0000 0.0000 1772.9210 -7370.0253 305.5915 -9142.9463 -7366.9029 300.5200 -225.8097 -194.2674 29707.4589 -83.2710 -26.1039
ENERGY: 900000 4.6064 9.2307 8.1076 0.0000 -10522.5920 1412.1774 0.0000 0.0000 1689.2271 -7399.2428 291.1655 -9088.4699 -7370.9271 300.0124 103.0342 132.2002 29893.1967 -25.4232 29.5073
ENERGY: 1200000 3.4531 9.4712 7.2840 0.0000 -10613.9979 1449.8964 0.0000 0.0000 1728.7502 -7415.1429 297.9780 -9143.8931 -7366.5350 300.0773 409.6322 413.8022 29877.5845 27.8587 73.7101
ENERGY: 1500000 1.4098 12.2090 6.6443 0.0000 -10667.5191 1474.2026 0.0000 0.0000 1715.5674 -7457.4859 295.7057 -9173.0534 -7373.1373 299.8637 432.6687 508.9608 29429.0176 80.2986 125.3493
TCL: Running FEP window  12: Lambda1 0.4499999999999996 Lambda2 0.39999999999999963 [dLambda -0.04999999999999999]
TCL: Setting parameter firsttimestep to 0
TCL: Setting parameter alchLambda to 0.4499999999999996
Info: NONBONDED TABLE R-SQUARED SPACING: 0.0625
Info: NONBONDED TABLE SIZE: 705 POINTS
TCL: Setting parameter alchLambda2 to 0.39999999999999963
Info: NONBONDED TABLE R-SQUARED SPACING: 0.0625
Info: NONBONDED TABLE SIZE: 705 POINTS
TCL: Running for 1500000 steps
ETITLE: TS BOND ANGLE DIHED IMPRP ELECT VDW BOUNDARY MISC KINETIC TOTAL TEMP POTENTIAL TOTALAVG TEMPAVG PRESSURE GPRESSURE VOLUME PRESSAVG GPRESSAVG
ENERGY: 0 1.4098 12.2090 6.6443 0.0000 -10667.5198 1474.2333 0.0000 0.0000 1714.6851 -7458.3382 295.5536 -9173.0234 -7458.3382 295.5536 416.1078 497.4983 29429.0176 416.1078 497.4983
ENERGY: 300000 2.7249 11.7637 7.2686 0.0000 -10608.1228 1395.2995 0.0000 0.0000 1730.7504 -7460.3157 298.3227 -9191.0661 -7407.4904 299.7269 -382.7290 -254.3570 29883.4248 -421.9041 -343.5690
ENERGY: 600000 3.6853 9.6381 7.0120 0.0000 -10792.3134 1617.8348 0.0000 0.0000 1706.3631 -7447.7800 294.1192 -9154.1432 -7393.9709 301.0246 1343.5298 1410.1101 29911.8607 -165.4572 -82.9249
ENERGY: 900000 2.3492 10.4679 7.2251 0.0000 -10389.5147 1342.0255 0.0000 0.0000 1756.0087 -7271.4383 302.6764 -9027.4469 -7382.3649 300.4390 -610.3553 -521.2414 30255.4303 -188.2442 -112.5888
ENERGY: 1200000 1.5971 14.0886 8.2840 0.0000 -10529.3325 1349.7499 0.0000 0.0000 1736.5134 -7419.0995 299.3161 -9155.6129 -7384.1606 300.1612 -604.0899 -573.3505 29732.0220 -222.7023 -153.6693
ENERGY: 1500000 1.0526 6.8084 7.1631 0.0000 -10478.4705 1407.9182 0.0000 0.0000 1702.2030 -7353.3253 293.4021 -9055.5282 -7376.4478 299.1099 -72.1906 -19.4377 30284.2824 -272.1766 -206.0739
TCL: Running FEP window  13: Lambda1 0.39999999999999963 Lambda2 0.34999999999999964 [dLambda -0.04999999999999999]
TCL: Setting parameter firsttimestep to 0
TCL: Setting parameter alchLambda to 0.39999999999999963
Info: NONBONDED TABLE R-SQUARED SPACING: 0.0625
Info: NONBONDED TABLE SIZE: 705 POINTS
TCL: Setting parameter alchLambda2 to 0.34999999999999964
Info: NONBONDED TABLE R-SQUARED SPACING: 0.0625
Info: NONBONDED TABLE SIZE: 705 POINTS
TCL: Running for 1500000 steps
ETITLE: TS BOND ANGLE DIHED IMPRP ELECT VDW BOUNDARY MISC KINETIC TOTAL TEMP POTENTIAL TOTALAVG TEMPAVG PRESSURE GPRESSURE VOLUME PRESSAVG GPRESSAVG
ENERGY: 0 1.0526 6.8084 7.1631 0.0000 -10478.4696 1408.1962 0.0000 0.0000 1701.3501 -7353.8991 293.2551 -9055.2492 -7353.8991 293.2551 -117.4906 -24.6999 30284.2824 -117.4906 -24.6999
ENERGY: 300000 3.3657 11.4114 7.3810 0.0000 -10511.5642 1381.7294 0.0000 0.0000 1691.8707 -7415.8061 291.6212 -9107.6768 -7379.5383 296.3083 -239.1137 -173.5238 29774.8621 -135.7599 -52.7121
ENERGY: 600000 2.1885 9.3202 8.1365 0.0000 -10472.2363 1339.3087 0.0000 0.0000 1752.6407 -7360.6416 302.0959 -9113.2823 -7390.5548 298.4992 -651.9331 -523.8675 30321.7672 -257.0087 -159.5557
ENERGY: 900000 0.6304 13.3671 8.3949 0.0000 -10666.5206 1516.5190 0.0000 0.0000 1752.4007 -7375.2085 302.0545 -9127.6092 -7384.1503 299.7738 610.9238 625.9108 30144.7955 -85.1683 -8.7117
ENERGY: 1200000 2.2418 15.1146 8.9192 0.0000 -10596.1146 1381.3807 0.0000 0.0000 1760.8045 -7427.6539 303.5030 -9188.4584 -7394.6371 299.5557 -475.3920 -424.8800 29865.3100 -12.4579 60.5007
ENERGY: 1500000 5.2187 9.7288 7.8764 0.0000 -10556.1830 1403.9714 0.0000 0.0000 1714.7185 -7414.6692 295.5594 -9129.3877 -7394.8593 299.4485 -168.2332 -122.5591 29829.1359 16.2181 81.4370
TCL: Running FEP window  14: Lambda1 0.34999999999999964 Lambda2 0.29999999999999966 [dLambda -0.04999999999999999]
TCL: Setting parameter firsttimestep to 0
TCL: Setting parameter alchLambda to 0.34999999999999964
Info: NONBONDED TABLE R-SQUARED SPACING: 0.0625
Info: NONBONDED TABLE SIZE: 705 POINTS
TCL: Setting parameter alchLambda2 to 0.29999999999999966
Info: NONBONDED TABLE R-SQUARED SPACING: 0.0625
Info: NONBONDED TABLE SIZE: 705 POINTS
TCL: Running for 1500000 steps
ETITLE: TS BOND ANGLE DIHED IMPRP ELECT VDW BOUNDARY MISC KINETIC TOTAL TEMP POTENTIAL TOTALAVG TEMPAVG PRESSURE GPRESSURE VOLUME PRESSAVG GPRESSAVG
ENERGY: 0 5.2187 9.7288 7.8764 0.0000 -10556.1831 1404.5719 0.0000 0.0000 1713.8690 -7414.9182 295.4130 -9128.7872 -7414.9182 295.4130 -206.5501 -121.3480 29829.1359 -206.5501 -121.3480
ENERGY: 300000 1.7658 13.0050 7.4468 0.0000 -10486.9773 1325.8747 0.0000 0.0000 1715.0168 -7423.8683 295.6108 -9138.8851 -7381.6084 300.0533 -963.6859 -976.3859 29983.9984 -609.0150 -533.1380
ENERGY: 600000 1.9826 14.7225 6.7290 0.0000 -10439.1430 1388.2543 0.0000 0.0000 1722.6544 -7304.8002 296.9273 -9027.4546 -7353.2571 299.6329 -54.8164 65.4445 30051.3722 -428.3193 -362.3000
ENERGY: 900000 2.3337 10.5653 10.0608 0.0000 -10532.7950 1417.2361 0.0000 0.0000 1710.3235 -7382.2756 294.8018 -9092.5991 -7353.2122 298.5908 99.6490 113.1436 29645.3150 -358.2196 -307.9546
ENERGY: 1200000 2.8017 10.6854 6.7430 0.0000 -10586.7238 1412.7161 0.0000 0.0000 1715.2216 -7438.5559 295.6461 -9153.7775 -7371.9523 297.4357 -202.2019 -172.4222 30138.7401 -294.5994 -245.3893
ENERGY: 1500000 3.9868 10.8150 6.6164 0.0000 -10577.9181 1395.3386 0.0000 0.0000 1747.8391 -7413.3222 301.2682 -9161.1613 -7377.7157 297.4678 -86.7052 16.7446 29745.2459 -290.5259 -231.0360
TCL: Running FEP window  15: Lambda1 0.29999999999999966 Lambda2 0.24999999999999967 [dLambda -0.04999999999999999]
TCL: Setting parameter firsttimestep to 0
TCL: Setting parameter alchLambda to 0.29999999999999966
Info: NONBONDED TABLE R-SQUARED SPACING: 0.0625
Info: NONBONDED TABLE SIZE: 705 POINTS
TCL: Setting parameter alchLambda2 to 0.24999999999999967
Info: NONBONDED TABLE R-SQUARED SPACING: 0.0625
Info: NONBONDED TABLE SIZE: 705 POINTS
TCL: Running for 1500000 steps
ETITLE: TS BOND ANGLE DIHED IMPRP ELECT VDW BOUNDARY MISC KINETIC TOTAL TEMP POTENTIAL TOTALAVG TEMPAVG PRESSURE GPRESSURE VOLUME PRESSAVG GPRESSAVG
ENERGY: 0 3.9868 10.8150 6.6164 0.0000 -10577.9175 1395.8649 0.0000 0.0000 1747.0029 -7413.6315 301.1241 -9160.6344 -7413.6315 301.1241 -67.7072 13.3649 29745.2459 -67.7072 13.3649
ENERGY: 300000 3.2507 8.8076 7.6430 0.0000 -10567.4967 1442.7706 0.0000 0.0000 1725.5088 -7379.5159 297.4193 -9105.0247 -7340.6552 299.9839 399.9455 416.6794 29507.5069 27.7397 75.7237
ENERGY: 600000 2.6759 9.5472 10.0510 0.0000 -10485.2508 1350.5953 0.0000 0.0000 1733.6645 -7378.7169 298.8250 -9112.3814 -7340.8982 300.1927 -188.0292 -131.2293 29240.0652 114.8608 167.3088
ENERGY: 900000 4.7582 11.0414 5.4840 0.0000 -10605.2754 1477.8297 0.0000 0.0000 1671.9275 -7434.2346 288.1837 -9106.1621 -7354.3547 298.3740 276.5768 290.7816 29942.7232 197.4732 250.7961
ENERGY: 1200000 4.5544 11.5128 7.8992 0.0000 -10689.4202 1442.3163 0.0000 0.0000 1781.6415 -7441.4959 307.0946 -9223.1375 -7357.4008 299.6219 196.3883 220.5889 29186.1389 222.7754 281.2297
ENERGY: 1500000 3.7333 10.0586 8.6459 0.0000 -10547.1498 1392.0777 0.0000 0.0000 1760.0236 -7372.6108 303.3684 -9132.6344 -7359.8427 299.5139 -117.0348 -111.6356 29298.4692 169.3226 232.4666
TCL: Running FEP window  16: Lambda1 0.24999999999999967 Lambda2 0.19999999999999968 [dLambda -0.04999999999999999]
TCL: Setting parameter firsttimestep to 0
TCL: Setting parameter alchLambda to 0.24999999999999967
Info: NONBONDED TABLE R-SQUARED SPACING: 0.0625
Info: NONBONDED TABLE SIZE: 705 POINTS
TCL: Setting parameter alchLambda2 to 0.19999999999999968
Info: NONBONDED TABLE R-SQUARED SPACING: 0.0625
Info: NONBONDED TABLE SIZE: 705 POINTS
TCL: Running for 1500000 steps
ETITLE: TS BOND ANGLE DIHED IMPRP ELECT VDW BOUNDARY MISC KINETIC TOTAL TEMP POTENTIAL TOTALAVG TEMPAVG PRESSURE GPRESSURE VOLUME PRESSAVG GPRESSAVG
ENERGY: 0 3.7333 10.0586 8.6459 0.0000 -10547.1509 1391.9788 0.0000 0.0000 1759.1527 -7373.5816 303.2183 -9132.7343 -7373.5816 303.2183 -193.2682 -117.5413 29298.4692 -193.2682 -117.5413
ENERGY: 300000 1.8867 10.8635 8.1550 0.0000 -10638.7896 1460.7036 0.0000 0.0000 1750.5612 -7406.6196 301.7374 -9157.1808 -7361.3490 302.9643 274.6142 271.8192 29645.2851 167.5605 227.2534
ENERGY: 600000 1.4222 11.4423 6.0956 0.0000 -10776.3384 1557.9292 0.0000 0.0000 1737.8690 -7461.5800 299.5497 -9199.4491 -7376.8734 301.7717 891.2253 920.9030 29620.8760 166.6780 223.0449
ENERGY: 900000 2.9132 8.6930 6.9365 0.0000 -10812.4847 1547.7740 0.0000 0.0000 1709.1618 -7537.0062 294.6016 -9246.1680 -7389.5278 300.8025 634.4301 699.8474 29740.2250 152.4453 201.3750
ENERGY: 1200000 2.6722 11.7463 7.6040 0.0000 -10565.0475 1432.3973 0.0000 0.0000 1757.3383 -7353.2895 302.9056 -9110.6278 -7385.3897 301.0598 -19.1882 82.2144 30137.5272 64.3960 125.0046
ENERGY: 1500000 1.1695 10.1475 10.3323 0.0000 -10474.5540 1456.5603 0.0000 0.0000 1814.8152 -7181.5292 312.8127 -8996.3444 -7370.7130 301.6685 606.2999 687.5854 30098.1987 43.6468 101.8486
TCL: Running FEP window  17: Lambda1 0.19999999999999968 Lambda2 0.1499999999999997 [dLambda -0.04999999999999999]
TCL: Setting parameter firsttimestep to 0
TCL: Setting parameter alchLambda to 0.19999999999999968
Info: NONBONDED TABLE R-SQUARED SPACING: 0.0625
Info: NONBONDED TABLE SIZE: 705 POINTS
TCL: Setting parameter alchLambda2 to 0.1499999999999997
Info: NONBONDED TABLE R-SQUARED SPACING: 0.0625
Info: NONBONDED TABLE SIZE: 705 POINTS
TCL: Running for 1500000 steps
ETITLE: TS BOND ANGLE DIHED IMPRP ELECT VDW BOUNDARY MISC KINETIC TOTAL TEMP POTENTIAL TOTALAVG TEMPAVG PRESSURE GPRESSURE VOLUME PRESSAVG GPRESSAVG
ENERGY: 0 1.1695 10.1475 10.3323 0.0000 -10474.5545 1456.1517 0.0000 0.0000 1813.9505 -7182.8029 312.6636 -8996.7535 -7182.8029 312.6636 613.5373 683.4459 30098.1987 613.5373 683.4459
ENERGY: 300000 1.5280 8.5608 7.3105 0.0000 -10516.2733 1368.1749 0.0000 0.0000 1727.2885 -7403.4105 297.7260 -9130.6991 -7341.8914 298.3236 -171.7004 -165.4335 29539.5368 -33.2619 35.2566
ENERGY: 600000 2.2958 12.1506 8.9364 0.0000 -10541.5932 1380.0233 0.0000 0.0000 1688.4041 -7449.7830 291.0237 -9138.1871 -7372.8290 298.5635 -380.8569 -329.5054 29868.5785 -215.2127 -160.6189
ENERGY: 900000 1.6699 8.3348 8.9378 0.0000 -10568.0392 1391.2473 0.0000 0.0000 1746.3131 -7411.5363 301.0052 -9157.8494 -7386.3815 298.0830 -401.4417 -414.5699 30015.8957 -176.0978 -123.4408
ENERGY: 1200000 1.3502 7.5874 5.3128 0.0000 -10591.9706 1428.1823 0.0000 0.0000 1761.5475 -7387.9904 303.6311 -9149.5379 -7382.9958 298.9932 -170.6406 -119.2372 29955.9988 -211.1219 -161.0196
ENERGY: 1500000 1.4580 10.1996 6.4642 0.0000 -10506.6702 1413.1399 0.0000 0.0000 1743.1329 -7332.2755 300.4571 -9075.4084 -7381.3469 299.5839 -57.3119 41.1998 30006.9973 -158.3958 -102.7016
TCL: Running FEP window  18: Lambda1 0.1499999999999997 Lambda2 0.09999999999999969 [dLambda -0.05 ]
TCL: Setting parameter firsttimestep to 0
TCL: Setting parameter alchLambda to 0.1499999999999997
Info: NONBONDED TABLE R-SQUARED SPACING: 0.0625
Info: NONBONDED TABLE SIZE: 705 POINTS
TCL: Setting parameter alchLambda2 to 0.09999999999999969
Info: NONBONDED TABLE R-SQUARED SPACING: 0.0625
Info: NONBONDED TABLE SIZE: 705 POINTS
TCL: Running for 1500000 steps
ETITLE: TS BOND ANGLE DIHED IMPRP ELECT VDW BOUNDARY MISC KINETIC TOTAL TEMP POTENTIAL TOTALAVG TEMPAVG PRESSURE GPRESSURE VOLUME PRESSAVG GPRESSAVG
ENERGY: 0 1.4580 10.1996 6.4642 0.0000 -10506.6706 1413.0893 0.0000 0.0000 1742.2709 -7333.1886 300.3085 -9075.4596 -7333.1886 300.3085 -33.8546 36.9941 30006.9973 -33.8546 36.9941
ENERGY: 300000 5.1677 11.2862 8.1119 0.0000 -10449.4607 1396.0863 0.0000 0.0000 1791.1995 -7237.6091 308.7421 -9028.8086 -7329.2377 304.1595 -238.4811 -153.2799 30181.8918 -403.7411 -355.3556
ENERGY: 600000 1.5118 7.8701 6.6198 0.0000 -10728.7967 1493.7026 0.0000 0.0000 1755.7146 -7463.3777 302.6257 -9219.0923 -7367.3642 304.3116 513.6138 551.2438 29229.1397 21.7682 68.2875
ENERGY: 900000 2.9030 8.1832 7.2697 0.0000 -10548.5484 1417.1639 0.0000 0.0000 1769.2722 -7343.7564 304.9626 -9113.0286 -7370.8972 303.2210 -73.5457 110.8622 29619.8990 76.3073 145.0403
ENERGY: 1200000 0.9236 7.4183 7.4919 0.0000 -10595.7550 1450.6833 0.0000 0.0000 1748.0832 -7381.1547 301.3103 -9129.2379 -7375.6234 302.7591 202.3115 293.7663 29861.0191 65.0064 129.7495
ENERGY: 1500000 1.6777 11.6733 7.2972 0.0000 -10709.0963 1511.8685 0.0000 0.0000 1748.5658 -7428.0138 301.3935 -9176.5796 -7373.8329 302.4039 640.9045 718.9409 29492.8382 137.6357 202.8741
TCL: Running FEP window  19: Lambda1 0.09999999999999969 Lambda2 0.049999999999999684 [dLambda -0.05 ]
TCL: Setting parameter firsttimestep to 0
TCL: Setting parameter alchLambda to 0.09999999999999969
Info: NONBONDED TABLE R-SQUARED SPACING: 0.0625
Info: NONBONDED TABLE SIZE: 705 POINTS
TCL: Setting parameter alchLambda2 to 0.049999999999999684
Info: NONBONDED TABLE R-SQUARED SPACING: 0.0625
Info: NONBONDED TABLE SIZE: 705 POINTS
TCL: Running for 1500000 steps
ETITLE: TS BOND ANGLE DIHED IMPRP ELECT VDW BOUNDARY MISC KINETIC TOTAL TEMP POTENTIAL TOTALAVG TEMPAVG PRESSURE GPRESSURE VOLUME PRESSAVG GPRESSAVG
ENERGY: 0 1.6777 11.6733 7.2972 0.0000 -10709.0971 1511.5989 0.0000 0.0000 1747.6791 -7429.1709 301.2407 -9176.8500 -7429.1709 301.2407 649.6987 715.0833 29492.8382 649.6987 715.0833
ENERGY: 300000 3.2264 8.2306 6.6010 0.0000 -10495.9528 1403.5843 0.0000 0.0000 1714.7376 -7359.5729 295.5627 -9074.3105 -7357.3276 299.1310 -50.7244 84.9209 29769.9032 16.0240 73.5593
ENERGY: 600000 3.4561 11.9852 9.5453 0.0000 -10536.6732 1475.9488 0.0000 0.0000 1750.0027 -7285.7350 301.6412 -9035.7377 -7348.0277 299.7757 799.9447 849.6274 29651.2903 135.6575 203.2545
ENERGY: 900000 2.2462 10.9707 7.5740 0.0000 -10556.3704 1458.2309 0.0000 0.0000 1802.6155 -7274.7330 310.7098 -9077.3485 -7341.6239 300.9033 337.4617 498.0677 30072.2319 293.0803 367.2415
ENERGY: 1200000 1.5038 8.4853 7.5339 0.0000 -10612.1241 1459.6984 0.0000 0.0000 1727.7977 -7407.1050 297.8138 -9134.9027 -7345.3627 301.9760 307.0664 315.8739 29866.2717 298.6811 362.4389
ENERGY: 1500000 2.6150 10.3819 9.2029 0.0000 -10507.8748 1349.7553 0.0000 0.0000 1769.4914 -7366.4284 305.0004 -9135.9198 -7353.0898 302.0588 -352.7203 -393.9071 29528.1059 239.0265 286.1509
TCL: Running FEP window  20: Lambda1 0.049999999999999684 Lambda2 0.0    [dLambda -0.049999999999999684]
TCL: Setting parameter firsttimestep to 0
TCL: Setting parameter alchLambda to 0.049999999999999684
Info: NONBONDED TABLE R-SQUARED SPACING: 0.0625
Info: NONBONDED TABLE SIZE: 705 POINTS
TCL: Setting parameter alchLambda2 to 0.0
Info: NONBONDED TABLE R-SQUARED SPACING: 0.0625
Info: NONBONDED TABLE SIZE: 705 POINTS
TCL: Running for 1500000 steps
ETITLE: TS BOND ANGLE DIHED IMPRP ELECT VDW BOUNDARY MISC KINETIC TOTAL TEMP POTENTIAL TOTALAVG TEMPAVG PRESSURE GPRESSURE VOLUME PRESSAVG GPRESSAVG
ENERGY: 0 2.6150 10.3819 9.2029 0.0000 -10507.8742 1348.6558 0.0000 0.0000 1768.6143 -7368.4044 304.8492 -9137.0187 -7368.4044 304.8492 -476.2050 -400.4558 29528.1059 -476.2050 -400.4558
ENERGY: 300000 1.8211 8.5294 8.2073 0.0000 -10646.7484 1525.0354 0.0000 0.0000 1733.6346 -7369.5205 298.8199 -9103.1551 -7388.4505 297.8101 970.6101 1007.7780 29476.4394 -188.5488 -120.4706
ENERGY: 600000 1.7143 9.1419 8.3744 0.0000 -10495.6154 1376.4406 0.0000 0.0000 1730.9200 -7369.0242 298.3520 -9099.9442 -7403.8139 296.8367 -29.3893 17.8102 29517.8976 53.8173 115.1418
ENERGY: 900000 1.9626 9.1498 6.3612 0.0000 -10551.5578 1457.2601 0.0000 0.0000 1798.9764 -7277.8478 310.0826 -9076.8242 -7374.1468 299.4940 516.2536 600.9987 29566.8541 123.8119 184.4621
ENERGY: 1200000 1.6864 12.5392 9.0786 0.0000 -10669.4719 1522.0236 0.0000 0.0000 1800.3697 -7323.7745 310.3227 -9124.1442 -7365.9913 300.5135 958.5748 1044.2962 29502.5589 88.8547 151.4509
ENERGY: 1500000 0.9908 10.2841 5.4514 0.0000 -10447.2612 1350.3819 0.0000 0.0000 1664.2352 -7415.9177 286.8578 -9080.1529 -7362.7300 299.5526 -337.8415 -274.2322 29892.6953 -53.8234 20.6541
TCL: Exiting due to exit command.
