Info: SIMULATION PARAMETERS:
Info: TIMESTEP               2
Info: NUMBER OF STEPS        0
Info: STEPS PER CYCLE        10
Info: PERIODIC CELL BASIS 1  30.735 0 0
Info: PERIODIC CELL BASIS 2  0 30.0972 0
Info: PERIODIC CELL BASIS 3  0 0 32.138
Info: PERIODIC CELL CENTER   0 0 0
Info: WRAPPING WATERS AROUND PERIODIC BOUNDARIES ON OUTPUT.
Info: WRAPPING ALL CLUSTERS AROUND PERIODIC BOUNDARIES ON OUTPUT.
Info: FIRST LDB TIMESTEP     50
Info: LAST LDB TIMESTEP     -1
Info: HOM BACKGROUND SCALING 1
Info: PME BACKGROUND SCALING 1
Info: MIN ATOMS PER PATCH    40
Info: EMPTY PATCH LOAD       40 ATOMS
Info: VELOCITY FILE          mobley_1323538_equil.vel
Info: CENTER OF MASS MOVING INITIALLY? NO
Info: DIELECTRIC             1
Info: EXCLUDE                SCALED ONE-FOUR
Info: 1-4 ELECTROSTATICS SCALED BY 0.833333
Info: MODIFIED 1-4 VDW PARAMETERS WILL BE USED
Info: DCD FILENAME           mobley_1323538_prod.dcd
Info: DCD FREQUENCY          100000
Info: DCD FIRST STEP         100000
Info: DCD FILE WILL CONTAIN UNIT CELL DATA
Info: XST FILENAME           mobley_1323538_prod.xst
Info: XST FREQUENCY          100000
Info: NO VELOCITY DCD OUTPUT
Info: NO FORCE DCD OUTPUT
Info: OUTPUT FILENAME        mobley_1323538_prod
Info: BINARY OUTPUT FILES WILL BE USED
Info: RESTART FILENAME       mobley_1323538_prod.restart
Info: RESTART FREQUENCY      100000
Info: BINARY RESTART FILES WILL BE USED
Info: CUTOFF                 9
Info: PAIRLIST DISTANCE      11
Info: PAIRLIST SHRINK RATE   0.01
Info: PAIRLIST GROW RATE     0.01
Info: PAIRLIST TRIGGER       0.3
Info: PAIRLISTS PER CYCLE    2
Info: PAIRLISTS ENABLED
Info: MARGIN                 2
Info: HYDROGEN GROUP CUTOFF  2.5
Info: PATCH DIMENSION        15.5
Info: ENERGY OUTPUT STEPS    100000
Info: ENERGY EVALUATION STEPS    100000
Info: OUTPUT ENERGY PRECISION 4
Info: CROSSTERM ENERGY INCLUDED IN DIHEDRAL
Info: TIMING OUTPUT STEPS    1000000
Info: PRESSURE OUTPUT STEPS  100000
Info: ALCHEMICAL FEP ON
Info: FEP CURRENT LAMBDA VALUE     1
Info: FEP COMPARISON LAMBDA VALUE  0.95
Info: FEP INTRA-ALCHEMICAL NON-BONDED INTERACTIONS WILL BE RETAINED
Info: FEP INTRA-ALCHEMICAL BONDED INTERACTIONS WILL BE RETAINED
Info: FEP VDW SHIFTING COEFFICIENT 5
Info: FEP ELEC. ACTIVE FOR ANNIHILATED PARTICLES BETWEEN LAMBDA = 0 AND LAMBDA = 0.5
Info: FEP ELEC. ACTIVE FOR EXNIHILATED PARTICLES BETWEEN LAMBDA = 0.5 AND LAMBDA = 1
Info: FEP VDW ACTIVE FOR ANNIHILATED PARTICLES BETWEEN LAMBDA = 0 AND LAMBDA = 1
Info: FEP VDW ACTIVE FOR EXNIHILATED PARTICLES BETWEEN LAMBDA = 0 AND LAMBDA = 1
Info: FEP BOND ACTIVE FOR ANNIHILATED PARTICLES BETWEEN LAMBDA = 1 AND LAMBDA = 1
Info: FEP BOND ACTIVE FOR EXNIHILATED PARTICLES BETWEEN LAMBDA = 0 AND LAMBDA = 0
Info: LANGEVIN DYNAMICS ACTIVE
Info: LANGEVIN TEMPERATURE   300
Info: LANGEVIN USING BBK INTEGRATOR
Info: LANGEVIN DAMPING COEFFICIENT IS 1 INVERSE PS
Info: LANGEVIN DYNAMICS APPLIED TO HYDROGENS
Info: LANGEVIN PISTON PRESSURE CONTROL ACTIVE
Info:        TARGET PRESSURE IS 1.01325 BAR
Info:     OSCILLATION PERIOD IS 50 FS
Info:             DECAY TIME IS 25 FS
Info:     PISTON TEMPERATURE IS 300 K
Info:       PRESSURE CONTROL IS GROUP-BASED
Info:    INITIAL STRAIN RATE IS 0.000561434 0.000561434 0.000561434
Info:       CELL FLUCTUATION IS ISOTROPIC
Info: PARTICLE MESH EWALD (PME) ACTIVE
Info: PME TOLERANCE               1e-06
Info: PME EWALD COEFFICIENT       0.348832
Info: PME INTERPOLATION ORDER     4
Info: PME GRID DIMENSIONS         32 32 36
Info: PME MAXIMUM GRID SPACING    1
Info: PME CALCULATION WILL BE PERFORMED ON GPU
Info: FULL ELECTROSTATIC EVALUATION FREQUENCY      2
Info: USING VERLET I (r-RESPA) MTS SCHEME.
Info: C1 SPLITTING OF LONG RANGE ELECTROSTATICS
Info: PLACING ATOMS IN PATCHES BY HYDROGEN GROUPS
Info: RIGID BONDS TO HYDROGEN : ALL
Info:         ERROR TOLERANCE : 1e-08
Info:          MAX ITERATIONS : 100
Info: RIGID WATER USING SETTLE ALGORITHM
Info: RANDOM NUMBER SEED     1744060515
Info: USE HYDROGEN BONDS?    NO
Info: Using AMBER format force field!
Info: AMBER PARM FILE        mobley_1323538.prmtop
Info: COORDINATE PDB         mobley_1323538.pdb
Info: Exclusions will be read from PARM file!
Info: SCNB (VDW SCALING)     2
Info: USING ARITHMETIC MEAN TO COMBINE L-J SIGMA PARAMETERS
Info: BINARY COORDINATES     mobley_1323538_equil.coor
Info: SUMMARY OF PARAMETERS:
Info: 8 BONDS
Info: 9 ANGLES
Info:   9 HARMONIC
Info:   0 COSINE-BASED
Info: 9 DIHEDRAL
Info: 0 IMPROPER
Info: 0 CROSSTERM
Info: 0 VDW
Info: 36 VDW_PAIRS
Info: 0 NBTHOLE_PAIRS
Info: To read alchdata from file: mobley_1323538.pdb
Info: To read alchflag data from column: 5
Info: STRUCTURE SUMMARY:
Info: 2915 ATOMS
Info: 2914 BONDS
Info: 45 ANGLES
Info: 66 DIHEDRALS
Info: 0 IMPROPERS
Info: 0 CROSSTERMS
Info: 3004 EXCLUSIONS
Info: 2904 RIGID BONDS
Info: ALCH: 0 ATOMS TO DISAPPEAR IN FINAL STATE
Info: ALCH: 26 ATOMS TO APPEAR IN FINAL STATE
Info: 5841 DEGREES OF FREEDOM
Info: 974 HYDROGEN GROUPS
Info: 4 ATOMS IN LARGEST HYDROGEN GROUP
Info: 974 MIGRATION GROUPS
Info: 4 ATOMS IN LARGEST MIGRATION GROUP
Info: TOTAL MASS = 17531.6 amu
Info: TOTAL CHARGE = 0.000700101 e
Info: MASS DENSITY = 0.979268 g/cm^3
Info: ATOM DENSITY = 0.0980529 atoms/A^3
Info: ADDED 0 IMPLICIT EXCLUSIONS
Info: NONBONDED TABLE R-SQUARED SPACING: 0.0625
Info: NONBONDED TABLE SIZE: 705 POINTS
Info: REMOVING COM VELOCITY -0.0631331 -0.144908 -0.174912
Info: Use 3D box decompostion in PME FFT.
Info: Updated CUDA force table with 4096 elements.
Info: Updated CUDA LJ table with 8 x 8 elements.
Info: Found 29 unique exclusion lists needing 92 bytes
TCL: Running for 1500000 steps
ETITLE: TS BOND ANGLE DIHED IMPRP ELECT VDW BOUNDARY MISC KINETIC TOTAL TEMP POTENTIAL TOTALAVG TEMPAVG PRESSURE GPRESSURE VOLUME PRESSAVG GPRESSAVG
ENERGY: 0 2.7628 14.0247 19.8002 0.0000 -10690.1569 1396.1646 0.0000 0.0000 1754.0679 -7503.3367 302.2383 -9257.4046 -7503.3367 302.2383 -323.8732 -239.8445 29728.8551 -323.8732 -239.8445
ENERGY: 300000 3.1788 14.6988 21.3138 0.0000 -10610.2026 1396.6687 0.0000 0.0000 1802.3989 -7371.9435 310.5661 -9174.3424 -7421.2152 301.2918 -102.2262 -67.9719 30063.2341 -167.9572 -104.8455
ENERGY: 600000 5.6160 13.5109 28.1675 0.0000 -10653.0675 1388.5135 0.0000 0.0000 1728.5443 -7488.7152 297.8405 -9217.2596 -7441.7584 299.1297 -519.6368 -443.6268 30214.6233 -254.2498 -184.6085
ENERGY: 900000 2.9196 14.1649 18.9672 0.0000 -10597.5481 1352.5096 0.0000 0.0000 1756.7426 -7452.2443 302.6992 -9208.9869 -7430.6365 299.4057 -541.2223 -432.9839 29756.4693 -231.4672 -158.1349
ENERGY: 1200000 1.7941 16.3909 22.3832 0.0000 -10631.7322 1441.5581 0.0000 0.0000 1778.2332 -7371.3727 306.4022 -9149.6059 -7420.1149 301.2925 161.5366 245.0792 30208.9967 -205.5158 -136.7316
ENERGY: 1500000 8.9270 13.0866 24.4642 0.0000 -10527.2580 1326.0011 0.0000 0.0000 1707.6350 -7447.1443 294.2376 -9154.7793 -7426.1387 300.0652 -675.7189 -611.3667 30078.0606 -192.8396 -128.4070
TCL: Running FEP window   2: Lambda1 0.95   Lambda2 0.8999999999999999 [dLambda -0.050000000000000044]
TCL: Setting parameter firsttimestep to 0
TCL: Setting parameter alchLambda to 0.95
Info: NONBONDED TABLE R-SQUARED SPACING: 0.0625
Info: NONBONDED TABLE SIZE: 705 POINTS
TCL: Setting parameter alchLambda2 to 0.8999999999999999
Info: NONBONDED TABLE R-SQUARED SPACING: 0.0625
Info: NONBONDED TABLE SIZE: 705 POINTS
TCL: Running for 1500000 steps
ETITLE: TS BOND ANGLE DIHED IMPRP ELECT VDW BOUNDARY MISC KINETIC TOTAL TEMP POTENTIAL TOTALAVG TEMPAVG PRESSURE GPRESSURE VOLUME PRESSAVG GPRESSAVG
ENERGY: 0 8.9270 13.0866 24.4642 0.0000 -10523.8836 1325.5220 0.0000 0.0000 1706.7780 -7445.1058 294.0900 -9151.8838 -7445.1058 294.0900 -704.5283 -629.4435 30078.0606 -704.5283 -629.4435
ENERGY: 300000 1.9217 12.1849 24.3169 0.0000 -10626.5069 1400.3155 0.0000 0.0000 1696.8567 -7490.9111 292.3805 -9187.7678 -7448.1913 294.3408 -127.8854 -80.7147 29949.8832 -528.6769 -447.8618
ENERGY: 600000 2.6852 10.4270 25.2122 0.0000 -10685.0275 1436.5051 0.0000 0.0000 1779.9858 -7430.2122 306.7042 -9210.1980 -7440.8429 298.2453 -22.0525 69.3050 30112.0719 -321.6083 -246.1739
ENERGY: 900000 3.6195 13.2221 18.3174 0.0000 -10479.1526 1361.0946 0.0000 0.0000 1753.7039 -7329.1952 302.1756 -9082.8991 -7422.3486 299.9040 -557.7462 -539.3624 30844.6417 -282.7447 -211.8350
ENERGY: 1200000 4.7979 12.6799 21.0489 0.0000 -10542.3831 1346.2446 0.0000 0.0000 1752.4763 -7405.1354 301.9641 -9157.6117 -7415.4775 300.3260 -712.1105 -664.1209 30307.0238 -254.8565 -194.3387
ENERGY: 1500000 2.4189 13.0123 22.7607 0.0000 -10539.4255 1344.1969 0.0000 0.0000 1741.9752 -7415.0615 300.1547 -9157.0367 -7415.8300 300.5780 -435.8168 -450.8610 29909.4271 -232.3081 -176.6786
TCL: Running FEP window   3: Lambda1 0.8999999999999999 Lambda2 0.8499999999999999 [dLambda -0.050000000000000044]
TCL: Setting parameter firsttimestep to 0
TCL: Setting parameter alchLambda to 0.8999999999999999
Info: NONBONDED TABLE R-SQUARED SPACING: 0.0625
Info: NONBONDED TABLE SIZE: 705 POINTS
TCL: Setting parameter alchLambda2 to 0.8499999999999999
Info: NONBONDED TABLE R-SQUARED SPACING: 0.0625
Info: NONBONDED TABLE SIZE: 705 POINTS
TCL: Running for 1500000 steps
ETITLE: TS BOND ANGLE DIHED IMPRP ELECT VDW BOUNDARY MISC KINETIC TOTAL TEMP POTENTIAL TOTALAVG TEMPAVG PRESSURE GPRESSURE VOLUME PRESSAVG GPRESSAVG
ENERGY: 0 2.4189 13.0123 22.7607 0.0000 -10537.6894 1343.7296 0.0000 0.0000 1741.1324 -7414.6355 300.0095 -9155.7679 -7414.6355 300.0095 -547.6470 -469.6315 29909.4271 -547.6470 -469.6315
ENERGY: 300000 5.0470 10.7136 22.0373 0.0000 -10671.2292 1456.5470 0.0000 0.0000 1736.4891 -7440.3953 299.2094 -9176.8844 -7423.2402 297.0675 1.3708 101.8235 30197.1708 -326.2285 -247.1483
ENERGY: 600000 3.6199 15.5036 17.9252 0.0000 -10479.7920 1270.7918 0.0000 0.0000 1702.8417 -7469.1098 293.4117 -9171.9515 -7431.3250 296.8523 -1249.6636 -1153.4801 29764.0121 -377.5194 -309.2087
ENERGY: 900000 1.7603 10.0327 24.5325 0.0000 -10531.5482 1386.6122 0.0000 0.0000 1724.9660 -7383.6445 297.2239 -9108.6104 -7429.2926 296.8070 -135.5158 -78.7953 30033.6496 -337.1666 -266.6187
ENERGY: 1200000 4.6495 11.4812 25.1515 0.0000 -10606.2593 1408.6074 0.0000 0.0000 1714.3935 -7441.9763 295.4022 -9156.3698 -7433.4596 296.2353 -12.3513 -30.0314 30200.4247 -290.0414 -235.2521
ENERGY: 1500000 4.0790 12.9354 20.1629 0.0000 -10494.4495 1338.4425 0.0000 0.0000 1761.1551 -7357.6745 303.4595 -9118.8297 -7429.0722 297.1361 -426.9069 -373.8385 30442.9290 -269.9527 -210.2508
TCL: Running FEP window   4: Lambda1 0.8499999999999999 Lambda2 0.7999999999999998 [dLambda -0.050000000000000044]
TCL: Setting parameter firsttimestep to 0
TCL: Setting parameter alchLambda to 0.8499999999999999
Info: NONBONDED TABLE R-SQUARED SPACING: 0.0625
Info: NONBONDED TABLE SIZE: 705 POINTS
TCL: Setting parameter alchLambda2 to 0.7999999999999998
Info: NONBONDED TABLE R-SQUARED SPACING: 0.0625
Info: NONBONDED TABLE SIZE: 705 POINTS
TCL: Running for 1500000 steps
ETITLE: TS BOND ANGLE DIHED IMPRP ELECT VDW BOUNDARY MISC KINETIC TOTAL TEMP POTENTIAL TOTALAVG TEMPAVG PRESSURE GPRESSURE VOLUME PRESSAVG GPRESSAVG
ENERGY: 0 4.0791 12.9354 20.1629 0.0000 -10490.7121 1337.5228 0.0000 0.0000 1760.2958 -7355.7162 303.3115 -9116.0120 -7355.7162 303.3115 -484.1408 -394.7240 30442.9290 -484.1408 -394.7240
ENERGY: 300000 2.8704 15.5526 20.1078 0.0000 -10688.8079 1443.9476 0.0000 0.0000 1697.6200 -7508.7094 292.5120 -9206.3295 -7406.2065 301.5826 2.9585 93.4056 29851.9262 -177.9564 -113.0803
ENERGY: 600000 4.0963 18.6398 18.0342 0.0000 -10497.9017 1334.7245 0.0000 0.0000 1750.7257 -7371.6812 301.6625 -9122.4070 -7396.4621 302.3936 -872.6964 -782.4574 30657.1028 -203.8933 -138.6164
ENERGY: 900000 2.6995 7.8082 23.9256 0.0000 -10681.2928 1454.7988 0.0000 0.0000 1733.3010 -7458.7596 298.6601 -9192.0607 -7408.0633 301.8860 221.0646 271.4793 29842.7881 -142.6186 -71.7781
ENERGY: 1200000 5.2353 14.4154 22.1633 0.0000 -10544.2179 1387.7933 0.0000 0.0000 1707.5519 -7407.0588 294.2233 -9114.6107 -7415.5851 301.1240 -78.2497 -27.9364 30259.0433 -151.0421 -75.1074
ENERGY: 1500000 3.7535 16.2854 19.8301 0.0000 -10539.4606 1403.8886 0.0000 0.0000 1728.4828 -7367.2203 297.8299 -9095.7030 -7405.6248 301.1833 64.7375 93.4701 30075.2171 -144.8672 -71.8513
TCL: Running FEP window   5: Lambda1 0.7999999999999998 Lambda2 0.7499999999999998 [dLambda -0.050000000000000044]
TCL: Setting parameter firsttimestep to 0
TCL: Setting parameter alchLambda to 0.7999999999999998
Info: NONBONDED TABLE R-SQUARED SPACING: 0.0625
Info: NONBONDED TABLE SIZE: 705 POINTS
TCL: Setting parameter alchLambda2 to 0.7499999999999998
Info: NONBONDED TABLE R-SQUARED SPACING: 0.0625
Info: NONBONDED TABLE SIZE: 705 POINTS
TCL: Running for 1500000 steps
ETITLE: TS BOND ANGLE DIHED IMPRP ELECT VDW BOUNDARY MISC KINETIC TOTAL TEMP POTENTIAL TOTALAVG TEMPAVG PRESSURE GPRESSURE VOLUME PRESSAVG GPRESSAVG
ENERGY: 0 3.7535 16.2854 19.8301 0.0000 -10537.8839 1403.9927 0.0000 0.0000 1727.6072 -7366.4150 297.6790 -9094.0223 -7366.4150 297.6790 -1.6298 86.1581 30075.2171 -1.6298 86.1581
ENERGY: 300000 4.0375 13.5720 22.6901 0.0000 -10507.3852 1366.8614 0.0000 0.0000 1783.6528 -7316.5715 307.3360 -9100.2242 -7415.2742 301.6325 78.8915 134.0828 29634.0804 -31.9190 23.0260
ENERGY: 600000 2.4028 14.8267 21.4728 0.0000 -10459.9751 1386.4095 0.0000 0.0000 1754.7916 -7280.0717 302.3631 -9034.8633 -7403.8291 300.9012 75.0653 139.9983 30331.1202 -97.6809 -55.0952
ENERGY: 900000 3.7244 13.4381 22.0587 0.0000 -10568.3495 1353.2771 0.0000 0.0000 1767.6297 -7408.2215 304.5751 -9175.8512 -7399.0486 302.7489 -204.8850 -251.8499 29832.5507 -64.0793 -21.3538
ENERGY: 1200000 2.4974 8.6128 18.7728 0.0000 -10646.3295 1380.6095 0.0000 0.0000 1711.8254 -7524.0115 294.9597 -9235.8370 -7406.7052 302.3848 -427.8087 -337.2205 29968.8270 -77.2338 -36.2902
ENERGY: 1500000 2.9202 12.1975 19.5466 0.0000 -10600.6948 1459.9656 0.0000 0.0000 1783.4366 -7322.6282 307.2988 -9106.0648 -7405.6866 302.6014 511.9116 600.3275 29824.9112 10.8268 57.5156
TCL: Running FEP window   6: Lambda1 0.7499999999999998 Lambda2 0.6999999999999997 [dLambda -0.050000000000000044]
TCL: Setting parameter firsttimestep to 0
TCL: Setting parameter alchLambda to 0.7499999999999998
Info: NONBONDED TABLE R-SQUARED SPACING: 0.0625
Info: NONBONDED TABLE SIZE: 705 POINTS
TCL: Setting parameter alchLambda2 to 0.6999999999999997
Info: NONBONDED TABLE R-SQUARED SPACING: 0.0625
Info: NONBONDED TABLE SIZE: 705 POINTS
TCL: Running for 1500000 steps
ETITLE: TS BOND ANGLE DIHED IMPRP ELECT VDW BOUNDARY MISC KINETIC TOTAL TEMP POTENTIAL TOTALAVG TEMPAVG PRESSURE GPRESSURE VOLUME PRESSAVG GPRESSAVG
ENERGY: 0 2.9202 12.1975 19.5466 0.0000 -10598.1670 1459.8958 0.0000 0.0000 1782.6118 -7320.9950 307.1567 -9103.6068 -7320.9950 307.1567 510.7114 593.4385 29824.9112 510.7114 593.4385
ENERGY: 300000 4.8696 11.5375 19.8098 0.0000 -10574.3667 1344.0535 0.0000 0.0000 1720.2627 -7473.8337 296.4135 -9194.0964 -7439.1517 298.9124 -618.8495 -568.3932 29649.3785 -160.7859 -110.0956
ENERGY: 600000 3.5591 14.6337 19.3636 0.0000 -10703.6032 1412.4225 0.0000 0.0000 1713.6701 -7539.9543 295.2775 -9253.6244 -7464.6269 299.1629 -351.2077 -289.7055 29880.9684 -282.1626 -219.9251
ENERGY: 900000 1.9879 12.4334 24.3033 0.0000 -10632.6415 1452.3075 0.0000 0.0000 1770.4998 -7371.1097 305.0697 -9141.6095 -7452.2067 299.1434 290.2772 359.9882 29908.8586 -191.0852 -139.8232
ENERGY: 1200000 0.6071 9.1094 19.2457 0.0000 -10728.4639 1449.9199 0.0000 0.0000 1687.7601 -7561.8217 290.8130 -9249.5818 -7455.7886 298.1139 292.8589 335.8695 29362.8815 -168.4569 -109.4029
ENERGY: 1500000 4.7819 11.2663 23.9376 0.0000 -10716.9872 1445.9679 0.0000 0.0000 1701.6644 -7529.3690 293.2089 -9231.0334 -7454.8046 297.7580 55.9313 124.6165 29859.4800 -82.4457 -27.3496
TCL: Running FEP window   7: Lambda1 0.6999999999999997 Lambda2 0.6499999999999997 [dLambda -0.050000000000000044]
TCL: Setting parameter firsttimestep to 0
TCL: Setting parameter alchLambda to 0.6999999999999997
Info: NONBONDED TABLE R-SQUARED SPACING: 0.0625
Info: NONBONDED TABLE SIZE: 705 POINTS
TCL: Setting parameter alchLambda2 to 0.6499999999999997
Info: NONBONDED TABLE R-SQUARED SPACING: 0.0625
Info: NONBONDED TABLE SIZE: 705 POINTS
TCL: Running for 1500000 steps
ETITLE: TS BOND ANGLE DIHED IMPRP ELECT VDW BOUNDARY MISC KINETIC TOTAL TEMP POTENTIAL TOTALAVG TEMPAVG PRESSURE GPRESSURE VOLUME PRESSAVG GPRESSAVG
ENERGY: 0 4.7819 11.2663 23.9376 0.0000 -10714.5758 1444.5217 0.0000 0.0000 1700.8259 -7529.2422 293.0644 -9230.0682 -7529.2422 293.0644 -5.7706 100.6564 29859.4800 -5.7706 100.6564
ENERGY: 300000 1.5531 10.6098 24.2395 0.0000 -10593.9759 1417.3892 0.0000 0.0000 1767.7135 -7372.4707 304.5896 -9140.1841 -7453.9797 295.6087 348.8151 339.3253 29852.7898 -26.2351 30.3495
ENERGY: 600000 3.9132 15.4594 18.6692 0.0000 -10634.1768 1426.1939 0.0000 0.0000 1746.8830 -7423.0580 301.0004 -9169.9411 -7436.2145 295.6405 212.5705 292.6628 29584.2675 -116.4336 -58.1853
ENERGY: 900000 1.9744 9.6516 22.5857 0.0000 -10552.1126 1342.0654 0.0000 0.0000 1745.6009 -7430.2346 300.7794 -9175.8355 -7434.0845 297.4030 -525.8090 -486.4675 29865.4967 -91.6430 -42.2896
ENERGY: 1200000 3.4861 15.9830 20.5033 0.0000 -10686.8737 1485.1801 0.0000 0.0000 1760.2564 -7401.4649 303.3047 -9161.7212 -7423.9736 297.5436 525.8603 549.4072 29918.4492 -52.9596 -10.9040
ENERGY: 1500000 4.6650 9.9676 19.5398 0.0000 -10502.9736 1321.2929 0.0000 0.0000 1765.2424 -7382.2659 304.1638 -9147.5083 -7413.3068 298.7378 -615.6277 -601.1112 29858.9311 -128.0344 -79.9315
TCL: Running FEP window   8: Lambda1 0.6499999999999997 Lambda2 0.5999999999999996 [dLambda -0.050000000000000044]
TCL: Setting parameter firsttimestep to 0
TCL: Setting parameter alchLambda to 0.6499999999999997
Info: NONBONDED TABLE R-SQUARED SPACING: 0.0625
Info: NONBONDED TABLE SIZE: 705 POINTS
TCL: Setting parameter alchLambda2 to 0.5999999999999996
Info: NONBONDED TABLE R-SQUARED SPACING: 0.0625
Info: NONBONDED TABLE SIZE: 705 POINTS
TCL: Running for 1500000 steps
ETITLE: TS BOND ANGLE DIHED IMPRP ELECT VDW BOUNDARY MISC KINETIC TOTAL TEMP POTENTIAL TOTALAVG TEMPAVG PRESSURE GPRESSURE VOLUME PRESSAVG GPRESSAVG
ENERGY: 0 4.6650 9.9676 19.5398 0.0000 -10501.0462 1321.6303 0.0000 0.0000 1764.3594 -7380.8842 304.0116 -9145.2435 -7380.8842 304.0116 -690.7163 -609.9002 29858.9311 -690.7163 -609.9002
ENERGY: 300000 1.0974 15.6991 20.4052 0.0000 -10628.3465 1492.8910 0.0000 0.0000 1748.6908 -7349.5630 301.3118 -9098.2537 -7361.4704 302.4564 963.5552 967.9722 29793.4688 -114.1394 -58.1434
ENERGY: 600000 1.1507 12.7300 19.6536 0.0000 -10785.7217 1487.3175 0.0000 0.0000 1738.1864 -7526.6835 299.5019 -9264.8700 -7395.1093 301.6542 685.7601 687.0500 29350.5258 -44.0767 -2.7814
ENERGY: 900000 1.9552 15.0577 19.6711 0.0000 -10520.0196 1372.4986 0.0000 0.0000 1691.7637 -7419.0733 291.5029 -9110.8370 -7391.2769 300.8325 -123.6104 -69.0895 29713.0569 -68.0849 -28.5858
ENERGY: 1200000 5.5706 16.1085 19.0814 0.0000 -10634.6396 1407.9622 0.0000 0.0000 1772.6608 -7413.2562 305.4420 -9185.9169 -7400.6203 300.8625 -235.7591 -168.0773 29930.0999 -20.5836 25.6367
ENERGY: 1500000 2.0874 13.2034 19.3826 0.0000 -10676.9415 1452.8161 0.0000 0.0000 1709.8770 -7479.5749 294.6240 -9189.4519 -7408.0050 300.3134 366.6678 408.5476 29737.4311 25.0493 72.3564
TCL: Running FEP window   9: Lambda1 0.5999999999999996 Lambda2 0.5499999999999996 [dLambda -0.050000000000000044]
TCL: Setting parameter firsttimestep to 0
TCL: Setting parameter alchLambda to 0.5999999999999996
Info: NONBONDED TABLE R-SQUARED SPACING: 0.0625
Info: NONBONDED TABLE SIZE: 705 POINTS
TCL: Setting parameter alchLambda2 to 0.5499999999999996
Info: NONBONDED TABLE R-SQUARED SPACING: 0.0625
Info: NONBONDED TABLE SIZE: 705 POINTS
TCL: Running for 1500000 steps
ETITLE: TS BOND ANGLE DIHED IMPRP ELECT VDW BOUNDARY MISC KINETIC TOTAL TEMP POTENTIAL TOTALAVG TEMPAVG PRESSURE GPRESSURE VOLUME PRESSAVG GPRESSAVG
ENERGY: 0 2.0874 13.2034 19.3826 0.0000 -10675.7894 1453.6464 0.0000 0.0000 1709.0259 -7478.4436 294.4773 -9187.4696 -7478.4436 294.4773 325.0783 407.8154 29737.4311 325.0783 407.8154
ENERGY: 300000 2.8418 13.2213 21.1496 0.0000 -10609.3325 1404.3352 0.0000 0.0000 1776.7886 -7390.9960 306.1533 -9167.7846 -7463.2881 297.2567 18.8089 32.5855 30067.1171 74.2125 126.4623
ENERGY: 600000 1.5617 11.2044 20.8391 0.0000 -10511.3175 1412.2889 0.0000 0.0000 1813.2564 -7252.1670 312.4369 -9065.4233 -7422.0027 299.4231 367.0518 516.2347 29870.9599 193.1241 251.1890
ENERGY: 900000 1.3634 12.0027 21.9781 0.0000 -10605.6072 1450.3841 0.0000 0.0000 1761.9480 -7357.9308 303.5962 -9119.8788 -7417.0236 299.7745 188.6505 246.1572 30377.6294 117.0446 179.0656
ENERGY: 1200000 2.6517 12.7910 20.3894 0.0000 -10613.3044 1429.5808 0.0000 0.0000 1671.6634 -7476.2281 288.0395 -9147.8914 -7423.2725 298.7431 331.1219 385.6094 29647.0219 133.7512 191.6367
ENERGY: 1500000 4.1504 12.7631 22.4334 0.0000 -10516.6020 1333.0284 0.0000 0.0000 1759.6383 -7384.5884 303.1982 -9144.2267 -7411.3125 299.6279 -644.5768 -583.2332 30088.3439 59.5689 123.9256
TCL: Running FEP window  10: Lambda1 0.5499999999999996 Lambda2 0.4999999999999996 [dLambda -0.04999999999999999]
TCL: Setting parameter firsttimestep to 0
TCL: Setting parameter alchLambda to 0.5499999999999996
Info: NONBONDED TABLE R-SQUARED SPACING: 0.0625
Info: NONBONDED TABLE SIZE: 705 POINTS
TCL: Setting parameter alchLambda2 to 0.4999999999999996
Info: NONBONDED TABLE R-SQUARED SPACING: 0.0625
Info: NONBONDED TABLE SIZE: 705 POINTS
TCL: Running for 1500000 steps
ETITLE: TS BOND ANGLE DIHED IMPRP ELECT VDW BOUNDARY MISC KINETIC TOTAL TEMP POTENTIAL TOTALAVG TEMPAVG PRESSURE GPRESSURE VOLUME PRESSAVG GPRESSAVG
ENERGY: 0 4.1504 12.7631 22.4334 0.0000 -10515.3525 1333.6064 0.0000 0.0000 1758.7545 -7383.6447 303.0459 -9142.3992 -7383.6447 303.0459 -675.7128 -589.0691 30088.3439 -675.7128 -589.0691
ENERGY: 300000 3.3753 7.6719 26.3291 0.0000 -10608.3856 1434.8698 0.0000 0.0000 1701.9049 -7434.2346 293.2503 -9136.1395 -7386.8691 298.7181 69.7862 104.5238 30249.5034 -486.0656 -399.9487
ENERGY: 600000 7.5401 10.4612 19.8526 0.0000 -10497.3833 1351.4070 0.0000 0.0000 1714.6019 -7393.5206 295.4381 -9108.1225 -7401.3696 296.6852 -463.7866 -438.6957 30071.1283 -227.1448 -147.0014
ENERGY: 900000 2.6314 12.1825 28.5066 0.0000 -10671.7719 1485.6332 0.0000 0.0000 1794.0616 -7348.7567 309.1296 -9142.8183 -7394.1136 298.6690 470.2258 561.7399 29785.2835 -177.4242 -103.6867
ENERGY: 1200000 3.9368 10.3670 20.9568 0.0000 -10548.4031 1333.9395 0.0000 0.0000 1726.2199 -7452.9831 297.4399 -9179.2030 -7396.1952 299.2775 -660.3335 -718.9945 30074.2986 -194.4529 -131.0243
ENERGY: 1500000 3.2479 17.8253 20.4905 0.0000 -10677.9381 1426.0953 0.0000 0.0000 1731.3410 -7478.9380 298.3223 -9210.2790 -7395.2504 299.4793 -107.6666 -47.3386 29908.4191 -230.5437 -168.7684
TCL: Running FEP window  11: Lambda1 0.4999999999999996 Lambda2 0.4499999999999996 [dLambda -0.04999999999999999]
TCL: Setting parameter firsttimestep to 0
TCL: Setting parameter alchLambda to 0.4999999999999996
Info: NONBONDED TABLE R-SQUARED SPACING: 0.0625
Info: NONBONDED TABLE SIZE: 705 POINTS
TCL: Setting parameter alchLambda2 to 0.4499999999999996
Info: NONBONDED TABLE R-SQUARED SPACING: 0.0625
Info: NONBONDED TABLE SIZE: 705 POINTS
TCL: Running for 1500000 steps
ETITLE: TS BOND ANGLE DIHED IMPRP ELECT VDW BOUNDARY MISC KINETIC TOTAL TEMP POTENTIAL TOTALAVG TEMPAVG PRESSURE GPRESSURE VOLUME PRESSAVG GPRESSAVG
ENERGY: 0 3.2479 17.8253 20.4905 0.0000 -10676.0016 1426.4728 0.0000 0.0000 1730.4489 -7477.5161 298.1686 -9207.9650 -7477.5161 298.1686 -141.7080 -49.8801 29908.4191 -141.7080 -49.8801
ENERGY: 300000 2.7398 18.7894 26.3873 0.0000 -10409.5332 1293.8854 0.0000 0.0000 1739.3483 -7328.3830 299.7021 -9067.7313 -7421.1766 297.9555 -475.6506 -415.9661 29886.0450 -209.6030 -142.4927
ENERGY: 600000 3.2904 8.7839 25.6083 0.0000 -10664.7644 1437.6071 0.0000 0.0000 1761.7335 -7427.7412 303.5592 -9189.4747 -7433.6647 297.4787 -5.3494 52.3675 29870.9397 -211.0324 -137.0991
ENERGY: 900000 4.8259 14.3778 21.4163 0.0000 -10664.7419 1425.3858 0.0000 0.0000 1697.0011 -7501.7349 292.4053 -9198.7360 -7437.0671 296.4648 -474.9731 -393.8672 30650.6582 -215.9614 -143.6948
ENERGY: 1200000 3.0541 14.0999 20.5300 0.0000 -10537.5788 1355.1588 0.0000 0.0000 1728.2749 -7416.4610 297.7940 -9144.7359 -7425.4234 297.2037 -327.7231 -242.7496 29819.9999 -248.5321 -183.4564
ENERGY: 1500000 2.4581 15.7285 20.8006 0.0000 -10567.8016 1325.1374 0.0000 0.0000 1740.1273 -7463.5496 299.8363 -9203.6769 -7431.4852 297.2706 -913.2480 -823.7146 29972.2108 -183.0230 -114.9638
TCL: Running FEP window  12: Lambda1 0.4499999999999996 Lambda2 0.39999999999999963 [dLambda -0.04999999999999999]
TCL: Setting parameter firsttimestep to 0
TCL: Setting parameter alchLambda to 0.4499999999999996
Info: NONBONDED TABLE R-SQUARED SPACING: 0.0625
Info: NONBONDED TABLE SIZE: 705 POINTS
TCL: Setting parameter alchLambda2 to 0.39999999999999963
Info: NONBONDED TABLE R-SQUARED SPACING: 0.0625
Info: NONBONDED TABLE SIZE: 705 POINTS
TCL: Running for 1500000 steps
ETITLE: TS BOND ANGLE DIHED IMPRP ELECT VDW BOUNDARY MISC KINETIC TOTAL TEMP POTENTIAL TOTALAVG TEMPAVG PRESSURE GPRESSURE VOLUME PRESSAVG GPRESSAVG
ENERGY: 0 2.4581 15.7285 20.8006 0.0000 -10567.8008 1324.8578 0.0000 0.0000 1739.2431 -7464.7127 299.6839 -9203.9558 -7464.7127 299.6839 -932.8074 -840.7268 29972.2108 -932.8074 -840.7268
ENERGY: 300000 1.8598 11.7073 25.8085 0.0000 -10563.2628 1402.7235 0.0000 0.0000 1746.3952 -7374.7685 300.9163 -9121.1637 -7393.5871 300.7594 -299.2179 -193.0839 30505.6446 -653.9538 -568.3247
ENERGY: 600000 3.4377 13.1578 18.6137 0.0000 -10380.2607 1343.1062 0.0000 0.0000 1770.9040 -7231.0413 305.1393 -9001.9453 -7376.7490 301.5635 -16.7898 -34.8841 30365.1780 -335.4471 -264.3331
ENERGY: 900000 1.2073 13.1557 23.2078 0.0000 -10535.7364 1395.5420 0.0000 0.0000 1789.2030 -7313.4205 308.2924 -9102.6235 -7369.9221 301.8351 0.8031 96.1527 29841.8660 -250.8477 -182.6117
ENERGY: 1200000 2.6710 9.8701 23.6752 0.0000 -10632.4055 1417.6595 0.0000 0.0000 1734.4572 -7444.0725 298.8593 -9178.5297 -7374.6509 302.0601 183.9907 276.4711 29465.8981 -192.7837 -122.0590
ENERGY: 1500000 5.7561 7.8849 20.2690 0.0000 -10649.5446 1430.0161 0.0000 0.0000 1769.4398 -7416.1787 304.8870 -9185.6185 -7380.1975 301.8777 27.0849 -0.8182 29733.2373 -178.9001 -121.5651
TCL: Running FEP window  13: Lambda1 0.39999999999999963 Lambda2 0.34999999999999964 [dLambda -0.04999999999999999]
TCL: Setting parameter firsttimestep to 0
TCL: Setting parameter alchLambda to 0.39999999999999963
Info: NONBONDED TABLE R-SQUARED SPACING: 0.0625
Info: NONBONDED TABLE SIZE: 705 POINTS
TCL: Setting parameter alchLambda2 to 0.34999999999999964
Info: NONBONDED TABLE R-SQUARED SPACING: 0.0625
Info: NONBONDED TABLE SIZE: 705 POINTS
TCL: Running for 1500000 steps
ETITLE: TS BOND ANGLE DIHED IMPRP ELECT VDW BOUNDARY MISC KINETIC TOTAL TEMP POTENTIAL TOTALAVG TEMPAVG PRESSURE GPRESSURE VOLUME PRESSAVG GPRESSAVG
ENERGY: 0 5.7561 7.8849 20.2690 0.0000 -10649.5459 1430.4078 0.0000 0.0000 1768.5680 -7416.6600 304.7368 -9185.2280 -7416.6600 304.7368 -83.6657 -4.5592 29733.2373 -83.6657 -4.5592
ENERGY: 300000 0.4322 11.1106 21.1474 0.0000 -10673.8614 1439.4349 0.0000 0.0000 1771.4471 -7430.2893 305.2329 -9201.7363 -7453.1889 300.0244 97.5862 184.6931 29770.4846 75.0719 171.1069
ENERGY: 600000 3.5639 9.0199 21.3317 0.0000 -10614.9605 1449.7385 0.0000 0.0000 1679.3148 -7451.9917 289.3579 -9131.3065 -7437.5016 298.6413 289.5334 379.9105 29733.0789 194.3822 270.0697
ENERGY: 900000 1.8098 9.2124 23.1485 0.0000 -10616.2603 1398.0977 0.0000 0.0000 1748.4514 -7435.5405 301.2706 -9183.9919 -7417.6787 299.9166 13.0145 68.1924 29484.8124 104.8912 170.2041
ENERGY: 1200000 4.0929 11.6503 20.0795 0.0000 -10671.6808 1442.7592 0.0000 0.0000 1752.5366 -7440.5623 301.9745 -9193.0989 -7427.2429 299.6151 162.7950 269.0826 29584.4431 142.1716 208.2407
ENERGY: 1500000 3.5171 9.3197 22.9201 0.0000 -10484.7323 1344.0531 0.0000 0.0000 1739.0902 -7365.8321 299.6576 -9104.9223 -7419.3041 300.0946 -274.8233 -209.7559 29589.2273 65.5999 130.3365
TCL: Running FEP window  14: Lambda1 0.34999999999999964 Lambda2 0.29999999999999966 [dLambda -0.04999999999999999]
TCL: Setting parameter firsttimestep to 0
TCL: Setting parameter alchLambda to 0.34999999999999964
Info: NONBONDED TABLE R-SQUARED SPACING: 0.0625
Info: NONBONDED TABLE SIZE: 705 POINTS
TCL: Setting parameter alchLambda2 to 0.29999999999999966
Info: NONBONDED TABLE R-SQUARED SPACING: 0.0625
Info: NONBONDED TABLE SIZE: 705 POINTS
TCL: Running for 1500000 steps
ETITLE: TS BOND ANGLE DIHED IMPRP ELECT VDW BOUNDARY MISC KINETIC TOTAL TEMP POTENTIAL TOTALAVG TEMPAVG PRESSURE GPRESSURE VOLUME PRESSAVG GPRESSAVG
ENERGY: 0 3.5171 9.3197 22.9201 0.0000 -10484.7313 1343.8236 0.0000 0.0000 1738.2228 -7366.9280 299.5081 -9105.1508 -7366.9280 299.5081 -304.6767 -218.0458 29589.2273 -304.6767 -218.0458
ENERGY: 300000 2.9223 15.0739 18.3140 0.0000 -10652.1740 1441.9248 0.0000 0.0000 1707.3570 -7466.5820 294.1897 -9173.9390 -7418.5214 296.2948 148.6197 211.1305 29828.0101 -57.8519 7.6367
ENERGY: 600000 5.0331 10.9353 20.0023 0.0000 -10680.3296 1455.0515 0.0000 0.0000 1739.5937 -7449.7138 299.7444 -9189.3075 -7427.3854 297.5600 349.7584 371.6012 29862.7829 -33.1257 17.6053
ENERGY: 900000 2.6867 7.4752 21.2035 0.0000 -10674.8751 1531.3886 0.0000 0.0000 1772.0563 -7340.0648 305.3379 -9112.1211 -7403.1966 299.6780 794.8721 848.0895 30309.9764 54.7163 110.3893
ENERGY: 1200000 1.1621 10.9504 24.2976 0.0000 -10461.7258 1381.5976 0.0000 0.0000 1743.4334 -7300.2847 300.4060 -9043.7181 -7380.7757 300.7907 -217.5834 -124.5986 29957.4398 -19.0186 33.3664
ENERGY: 1500000 3.5296 13.6755 21.4175 0.0000 -10671.2265 1454.0963 0.0000 0.0000 1788.3799 -7390.1277 308.1506 -9178.5075 -7390.1264 300.7507 246.5151 360.1271 30007.1412 0.4432 64.0285
TCL: Running FEP window  15: Lambda1 0.29999999999999966 Lambda2 0.24999999999999967 [dLambda -0.04999999999999999]
TCL: Setting parameter firsttimestep to 0
TCL: Setting parameter alchLambda to 0.29999999999999966
Info: NONBONDED TABLE R-SQUARED SPACING: 0.0625
Info: NONBONDED TABLE SIZE: 705 POINTS
TCL: Setting parameter alchLambda2 to 0.24999999999999967
Info: NONBONDED TABLE R-SQUARED SPACING: 0.0625
Info: NONBONDED TABLE SIZE: 705 POINTS
TCL: Running for 1500000 steps
ETITLE: TS BOND ANGLE DIHED IMPRP ELECT VDW BOUNDARY MISC KINETIC TOTAL TEMP POTENTIAL TOTALAVG TEMPAVG PRESSURE GPRESSURE VOLUME PRESSAVG GPRESSAVG
ENERGY: 0 3.5296 13.6755 21.4175 0.0000 -10671.2246 1454.8802 0.0000 0.0000 1787.5296 -7390.1922 308.0040 -9177.7217 -7390.1922 308.0040 269.5940 358.4954 30007.1412 269.5940 358.4954
ENERGY: 300000 2.5192 11.5420 19.3604 0.0000 -10668.4215 1477.2916 0.0000 0.0000 1735.8588 -7421.8496 299.1008 -9157.7084 -7403.8657 302.7473 759.4955 738.2356 29588.4555 156.3465 205.1254
ENERGY: 600000 6.8572 13.4211 24.2234 0.0000 -10724.7924 1536.1220 0.0000 0.0000 1698.8146 -7445.3541 292.7178 -9144.1688 -7401.3705 302.7254 1121.7267 1121.6572 29581.1306 228.0193 274.3469
ENERGY: 900000 3.4753 11.0015 20.7215 0.0000 -10586.4322 1413.5317 0.0000 0.0000 1726.5076 -7411.1947 297.4895 -9137.7023 -7392.4644 300.9419 -166.9466 -34.1861 30042.4978 141.2439 185.3549
ENERGY: 1200000 5.5506 13.7828 22.7841 0.0000 -10608.2251 1374.4354 0.0000 0.0000 1741.0625 -7450.6096 299.9974 -9191.6721 -7400.2383 300.8315 -810.6793 -714.9540 30324.3596 9.2179 50.2276
ENERGY: 1500000 1.4931 5.3966 21.0948 0.0000 -10546.9448 1420.6680 0.0000 0.0000 1761.9056 -7336.3868 303.5888 -9098.2923 -7398.3076 300.1835 324.8829 390.0433 29885.7682 97.1532 142.5502
TCL: Running FEP window  16: Lambda1 0.24999999999999967 Lambda2 0.19999999999999968 [dLambda -0.04999999999999999]
TCL: Setting parameter firsttimestep to 0
TCL: Setting parameter alchLambda to 0.24999999999999967
Info: NONBONDED TABLE R-SQUARED SPACING: 0.0625
Info: NONBONDED TABLE SIZE: 705 POINTS
TCL: Setting parameter alchLambda2 to 0.19999999999999968
Info: NONBONDED TABLE R-SQUARED SPACING: 0.0625
Info: NONBONDED TABLE SIZE: 705 POINTS
TCL: Running for 1500000 steps
ETITLE: TS BOND ANGLE DIHED IMPRP ELECT VDW BOUNDARY MISC KINETIC TOTAL TEMP POTENTIAL TOTALAVG TEMPAVG PRESSURE GPRESSURE VOLUME PRESSAVG GPRESSAVG
ENERGY: 0 1.4931 5.3966 21.0948 0.0000 -10546.9449 1421.0904 0.0000 0.0000 1761.0518 -7336.8182 303.4417 -9097.8700 -7336.8182 303.4417 323.3789 386.4596 29885.7682 323.3789 386.4596
ENERGY: 300000 1.3271 9.0474 26.3273 0.0000 -10597.8012 1440.9705 0.0000 0.0000 1704.1451 -7415.9837 293.6363 -9120.1288 -7400.1525 296.4664 258.6843 345.6494 29604.0295 73.6797 149.3015
ENERGY: 600000 3.0439 14.3415 23.4665 0.0000 -10598.9565 1428.8246 0.0000 0.0000 1764.6672 -7364.6128 304.0647 -9129.2800 -7418.0261 297.5754 -39.6925 22.8883 29957.4292 128.7006 197.8760
ENERGY: 900000 6.8827 13.7011 23.7289 0.0000 -10527.8886 1433.9117 0.0000 0.0000 1746.2402 -7303.4241 300.8896 -9049.6643 -7415.3911 297.5944 770.2270 730.5333 29841.4320 81.2458 143.0406
ENERGY: 1200000 2.1774 16.1907 20.7301 0.0000 -10638.4251 1390.3734 0.0000 0.0000 1726.0456 -7482.9079 297.4099 -9208.9535 -7423.2805 297.3812 -207.5032 -136.1712 29461.0039 -43.1216 20.2088
ENERGY: 1500000 2.6488 12.7740 18.9150 0.0000 -10693.6956 1489.0471 0.0000 0.0000 1761.7239 -7408.5867 303.5575 -9170.3106 -7423.0493 297.6063 871.3496 917.3267 28993.5558 -18.5742 38.9943
TCL: Running FEP window  17: Lambda1 0.19999999999999968 Lambda2 0.1499999999999997 [dLambda -0.04999999999999999]
TCL: Setting parameter firsttimestep to 0
TCL: Setting parameter alchLambda to 0.19999999999999968
Info: NONBONDED TABLE R-SQUARED SPACING: 0.0625
Info: NONBONDED TABLE SIZE: 705 POINTS
TCL: Setting parameter alchLambda2 to 0.1499999999999997
Info: NONBONDED TABLE R-SQUARED SPACING: 0.0625
Info: NONBONDED TABLE SIZE: 705 POINTS
TCL: Running for 1500000 steps
ETITLE: TS BOND ANGLE DIHED IMPRP ELECT VDW BOUNDARY MISC KINETIC TOTAL TEMP POTENTIAL TOTALAVG TEMPAVG PRESSURE GPRESSURE VOLUME PRESSAVG GPRESSAVG
ENERGY: 0 2.6488 12.7740 18.9150 0.0000 -10693.6967 1489.3805 0.0000 0.0000 1760.8832 -7409.0952 303.4127 -9169.9784 -7409.0952 303.4127 831.4591 913.6185 28993.5558 831.4591 913.6185
ENERGY: 300000 6.6828 7.7222 24.8704 0.0000 -10751.6986 1485.7249 0.0000 0.0000 1797.3370 -7429.3614 309.6939 -9226.6984 -7426.7527 303.8632 295.9597 337.3056 29589.6190 381.5286 443.5019
ENERGY: 600000 2.7413 10.9050 26.7944 0.0000 -10663.9738 1461.1472 0.0000 0.0000 1752.6119 -7409.7740 301.9875 -9162.3859 -7408.9608 302.6806 528.0059 556.6760 29616.2957 295.3882 359.4951
ENERGY: 900000 4.9343 12.1068 23.5044 0.0000 -10491.1316 1403.3678 0.0000 0.0000 1764.5023 -7282.7158 304.0363 -9047.2181 -7389.4488 303.3402 163.2670 214.4950 29689.7300 232.5181 285.8548
ENERGY: 1200000 1.7671 16.7736 18.5443 0.0000 -10643.3773 1377.1230 0.0000 0.0000 1805.7252 -7423.4442 311.1393 -9229.1693 -7389.2855 303.6715 -651.9944 -594.0270 30007.4439 74.2433 126.3787
ENERGY: 1500000 1.6132 8.4745 24.2065 0.0000 -10645.6425 1420.9847 0.0000 0.0000 1736.3287 -7454.0349 299.1818 -9190.3636 -7393.6120 302.5611 -86.4675 24.8662 29790.7587 114.7786 162.6661
TCL: Running FEP window  18: Lambda1 0.1499999999999997 Lambda2 0.09999999999999969 [dLambda -0.05 ]
TCL: Setting parameter firsttimestep to 0
TCL: Setting parameter alchLambda to 0.1499999999999997
Info: NONBONDED TABLE R-SQUARED SPACING: 0.0625
Info: NONBONDED TABLE SIZE: 705 POINTS
TCL: Setting parameter alchLambda2 to 0.09999999999999969
Info: NONBONDED TABLE R-SQUARED SPACING: 0.0625
Info: NONBONDED TABLE SIZE: 705 POINTS
TCL: Running for 1500000 steps
ETITLE: TS BOND ANGLE DIHED IMPRP ELECT VDW BOUNDARY MISC KINETIC TOTAL TEMP POTENTIAL TOTALAVG TEMPAVG PRESSURE GPRESSURE VOLUME PRESSAVG GPRESSAVG
ENERGY: 0 1.6132 8.4745 24.2065 0.0000 -10645.6448 1419.8671 0.0000 0.0000 1735.5010 -7455.9825 299.0391 -9191.4835 -7455.9825 299.0391 -68.2706 17.9979 29790.7587 -68.2706 17.9979
ENERGY: 300000 3.5144 16.6968 22.3328 0.0000 -10392.3005 1284.9692 0.0000 0.0000 1740.4781 -7324.3091 299.8967 -9064.7872 -7397.3236 298.8967 -1249.8351 -1079.9608 30365.8110 -370.4773 -277.4648
ENERGY: 600000 3.8442 13.1589 22.6558 0.0000 -10471.8655 1373.5137 0.0000 0.0000 1778.9883 -7279.7046 306.5323 -9058.6929 -7402.8162 298.5874 194.3566 239.6499 29624.0020 -190.7840 -113.7735
ENERGY: 900000 2.7747 10.6075 22.9511 0.0000 -10519.7663 1349.5775 0.0000 0.0000 1748.3310 -7385.5246 301.2498 -9133.8556 -7408.6032 298.0717 -604.9106 -481.1897 29648.3595 -313.4937 -228.7319
ENERGY: 1200000 3.0459 9.3767 22.4800 0.0000 -10716.2283 1523.2600 0.0000 0.0000 1751.5359 -7406.5298 301.8021 -9158.0657 -7404.3817 299.1740 670.4839 669.4494 29794.7606 -209.6116 -134.4825
ENERGY: 1500000 2.9308 18.3144 21.1183 0.0000 -10620.9446 1504.6516 0.0000 0.0000 1733.4304 -7340.4990 298.6824 -9073.9294 -7411.3311 298.7412 783.6857 814.3510 30182.9580 -168.4770 -88.3636
TCL: Running FEP window  19: Lambda1 0.09999999999999969 Lambda2 0.049999999999999684 [dLambda -0.05 ]
TCL: Setting parameter firsttimestep to 0
TCL: Setting parameter alchLambda to 0.09999999999999969
Info: NONBONDED TABLE R-SQUARED SPACING: 0.0625
Info: NONBONDED TABLE SIZE: 705 POINTS
TCL: Setting parameter alchLambda2 to 0.049999999999999684
Info: NONBONDED TABLE R-SQUARED SPACING: 0.0625
Info: NONBONDED TABLE SIZE: 705 POINTS
TCL: Running for 1500000 steps
ETITLE: TS BOND ANGLE DIHED IMPRP ELECT VDW BOUNDARY MISC KINETIC TOTAL TEMP POTENTIAL TOTALAVG TEMPAVG PRESSURE GPRESSURE VOLUME PRESSAVG GPRESSAVG
ENERGY: 0 2.9308 18.3144 21.1183 0.0000 -10620.9458 1503.2204 0.0000 0.0000 1732.5366 -7342.8253 298.5284 -9075.3619 -7342.8253 298.5284 727.8969 804.7817 30182.9580 727.8969 804.7817
ENERGY: 300000 2.5957 11.0225 19.3796 0.0000 -10586.3627 1369.6304 0.0000 0.0000 1745.6641 -7438.0706 300.7903 -9183.7346 -7378.9785 299.4207 -495.4473 -397.5907 29697.0060 -58.8497 26.5328
ENERGY: 600000 3.2140 12.1702 19.5964 0.0000 -10569.0060 1391.9485 0.0000 0.0000 1752.0979 -7389.9790 301.8989 -9142.0769 -7388.3952 299.9587 -246.1514 -231.7713 30058.0736 -122.3169 -57.3122
ENERGY: 900000 2.9684 8.8165 20.3017 0.0000 -10629.6288 1413.8041 0.0000 0.0000 1785.9672 -7397.7708 307.7348 -9183.7381 -7391.9947 301.6174 -436.1841 -343.1252 30100.4031 -125.6703 -55.4967
ENERGY: 1200000 4.7126 17.9011 21.2195 0.0000 -10504.7229 1382.2354 0.0000 0.0000 1704.0682 -7374.5862 293.6230 -9078.6543 -7402.3346 300.2936 35.2942 70.9043 29625.8874 -219.6324 -153.0974
ENERGY: 1500000 4.6156 15.7402 23.3737 0.0000 -10563.1878 1389.9627 0.0000 0.0000 1709.9862 -7419.5094 294.6428 -9129.4956 -7398.2994 300.4875 -248.2745 -181.0237 29901.1457 -237.4383 -175.9653
TCL: Running FEP window  20: Lambda1 0.049999999999999684 Lambda2 0.0    [dLambda -0.049999999999999684]
TCL: Setting parameter firsttimestep to 0
TCL: Setting parameter alchLambda to 0.049999999999999684
Info: NONBONDED TABLE R-SQUARED SPACING: 0.0625
Info: NONBONDED TABLE SIZE: 705 POINTS
TCL: Setting parameter alchLambda2 to 0.0
Info: NONBONDED TABLE R-SQUARED SPACING: 0.0625
Info: NONBONDED TABLE SIZE: 705 POINTS
TCL: Running for 1500000 steps
ETITLE: TS BOND ANGLE DIHED IMPRP ELECT VDW BOUNDARY MISC KINETIC TOTAL TEMP POTENTIAL TOTALAVG TEMPAVG PRESSURE GPRESSURE VOLUME PRESSAVG GPRESSAVG
ENERGY: 0 4.6156 15.7402 23.3737 0.0000 -10563.1885 1390.1254 0.0000 0.0000 1709.1296 -7420.2040 294.4952 -9129.3337 -7420.2040 294.4952 -264.6711 -184.0533 29901.1457 -264.6711 -184.0533
ENERGY: 300000 3.1628 6.3521 23.9190 0.0000 -10485.5497 1342.0540 0.0000 0.0000 1719.1814 -7390.8805 296.2272 -9110.0619 -7393.7042 300.5235 -597.5214 -560.2261 30211.7669 -392.1818 -331.4655
ENERGY: 600000 3.7344 12.8097 22.6123 0.0000 -10647.2332 1464.9242 0.0000 0.0000 1743.3106 -7399.8420 300.3848 -9143.1526 -7405.2028 301.0726 318.6831 336.6281 29910.4950 -246.0963 -194.7545
ENERGY: 900000 2.1665 12.2667 23.2390 0.0000 -10411.2873 1275.0670 0.0000 0.0000 1748.2304 -7350.3177 301.2325 -9098.5481 -7401.4051 300.6404 -1095.6559 -1140.4374 30209.3101 -290.3289 -241.4855
ENERGY: 1200000 3.6402 9.6346 21.6227 0.0000 -10498.1746 1294.6943 0.0000 0.0000 1763.4680 -7405.1147 303.8581 -9168.5827 -7401.1474 301.4858 -1164.8558 -1141.6843 29727.1330 -366.4324 -312.1637
ENERGY: 1500000 5.3888 14.7775 23.8080 0.0000 -10547.3660 1402.0281 0.0000 0.0000 1729.0796 -7372.2841 297.9327 -9101.3637 -7401.0135 300.3429 -129.3134 -76.1324 29684.4596 -270.0076 -222.9973
TCL: Exiting due to exit command.
