Info: SIMULATION PARAMETERS:
Info: TIMESTEP               2
Info: NUMBER OF STEPS        0
Info: STEPS PER CYCLE        10
Info: PERIODIC CELL BASIS 1  28.4168 0 0
Info: PERIODIC CELL BASIS 2  0 32.2444 0
Info: PERIODIC CELL BASIS 3  0 0 32.9842
Info: PERIODIC CELL CENTER   0 0 0
Info: WRAPPING WATERS AROUND PERIODIC BOUNDARIES ON OUTPUT.
Info: WRAPPING ALL CLUSTERS AROUND PERIODIC BOUNDARIES ON OUTPUT.
Info: FIRST LDB TIMESTEP     50
Info: LAST LDB TIMESTEP     -1
Info: HOM BACKGROUND SCALING 1
Info: PME BACKGROUND SCALING 1
Info: MIN ATOMS PER PATCH    40
Info: EMPTY PATCH LOAD       40 ATOMS
Info: VELOCITY FILE          mobley_3151666_equil.vel
Info: CENTER OF MASS MOVING INITIALLY? NO
Info: DIELECTRIC             1
Info: EXCLUDE                SCALED ONE-FOUR
Info: 1-4 ELECTROSTATICS SCALED BY 0.833333
Info: MODIFIED 1-4 VDW PARAMETERS WILL BE USED
Info: DCD FILENAME           mobley_3151666_prod.dcd
Info: DCD FREQUENCY          100000
Info: DCD FIRST STEP         100000
Info: DCD FILE WILL CONTAIN UNIT CELL DATA
Info: XST FILENAME           mobley_3151666_prod.xst
Info: XST FREQUENCY          100000
Info: NO VELOCITY DCD OUTPUT
Info: NO FORCE DCD OUTPUT
Info: OUTPUT FILENAME        mobley_3151666_prod
Info: BINARY OUTPUT FILES WILL BE USED
Info: RESTART FILENAME       mobley_3151666_prod.restart
Info: RESTART FREQUENCY      100000
Info: BINARY RESTART FILES WILL BE USED
Info: CUTOFF                 9
Info: PAIRLIST DISTANCE      11
Info: PAIRLIST SHRINK RATE   0.01
Info: PAIRLIST GROW RATE     0.01
Info: PAIRLIST TRIGGER       0.3
Info: PAIRLISTS PER CYCLE    2
Info: PAIRLISTS ENABLED
Info: MARGIN                 2
Info: HYDROGEN GROUP CUTOFF  2.5
Info: PATCH DIMENSION        15.5
Info: ENERGY OUTPUT STEPS    100000
Info: ENERGY EVALUATION STEPS    100000
Info: OUTPUT ENERGY PRECISION 4
Info: CROSSTERM ENERGY INCLUDED IN DIHEDRAL
Info: TIMING OUTPUT STEPS    1000000
Info: PRESSURE OUTPUT STEPS  100000
Info: ALCHEMICAL FEP ON
Info: FEP CURRENT LAMBDA VALUE     0
Info: FEP COMPARISON LAMBDA VALUE  0.05
Info: FEP INTRA-ALCHEMICAL NON-BONDED INTERACTIONS WILL BE RETAINED
Info: FEP INTRA-ALCHEMICAL BONDED INTERACTIONS WILL BE RETAINED
Info: FEP VDW SHIFTING COEFFICIENT 5
Info: FEP ELEC. ACTIVE FOR ANNIHILATED PARTICLES BETWEEN LAMBDA = 0 AND LAMBDA = 0.5
Info: FEP ELEC. ACTIVE FOR EXNIHILATED PARTICLES BETWEEN LAMBDA = 0.5 AND LAMBDA = 1
Info: FEP VDW ACTIVE FOR ANNIHILATED PARTICLES BETWEEN LAMBDA = 0 AND LAMBDA = 1
Info: FEP VDW ACTIVE FOR EXNIHILATED PARTICLES BETWEEN LAMBDA = 0 AND LAMBDA = 1
Info: FEP BOND ACTIVE FOR ANNIHILATED PARTICLES BETWEEN LAMBDA = 1 AND LAMBDA = 1
Info: FEP BOND ACTIVE FOR EXNIHILATED PARTICLES BETWEEN LAMBDA = 0 AND LAMBDA = 0
Info: LANGEVIN DYNAMICS ACTIVE
Info: LANGEVIN TEMPERATURE   300
Info: LANGEVIN USING BBK INTEGRATOR
Info: LANGEVIN DAMPING COEFFICIENT IS 1 INVERSE PS
Info: LANGEVIN DYNAMICS APPLIED TO HYDROGENS
Info: LANGEVIN PISTON PRESSURE CONTROL ACTIVE
Info:        TARGET PRESSURE IS 1.01325 BAR
Info:     OSCILLATION PERIOD IS 50 FS
Info:             DECAY TIME IS 25 FS
Info:     PISTON TEMPERATURE IS 300 K
Info:       PRESSURE CONTROL IS GROUP-BASED
Info:    INITIAL STRAIN RATE IS -0.000497041 -0.000497041 -0.000497041
Info:       CELL FLUCTUATION IS ISOTROPIC
Info: PARTICLE MESH EWALD (PME) ACTIVE
Info: PME TOLERANCE               1e-06
Info: PME EWALD COEFFICIENT       0.348832
Info: PME INTERPOLATION ORDER     4
Info: PME GRID DIMENSIONS         32 36 36
Info: PME MAXIMUM GRID SPACING    1
Info: PME CALCULATION WILL BE PERFORMED ON GPU
Info: FULL ELECTROSTATIC EVALUATION FREQUENCY      2
Info: USING VERLET I (r-RESPA) MTS SCHEME.
Info: C1 SPLITTING OF LONG RANGE ELECTROSTATICS
Info: PLACING ATOMS IN PATCHES BY HYDROGEN GROUPS
Info: RIGID BONDS TO HYDROGEN : ALL
Info:         ERROR TOLERANCE : 1e-08
Info:          MAX ITERATIONS : 100
Info: RIGID WATER USING SETTLE ALGORITHM
Info: RANDOM NUMBER SEED     1744106996
Info: USE HYDROGEN BONDS?    NO
Info: Using AMBER format force field!
Info: AMBER PARM FILE        mobley_3151666.prmtop
Info: COORDINATE PDB         mobley_3151666.pdb
Info: Exclusions will be read from PARM file!
Info: SCNB (VDW SCALING)     2
Info: USING ARITHMETIC MEAN TO COMBINE L-J SIGMA PARAMETERS
Info: BINARY COORDINATES     mobley_3151666_equil.coor
Info: SUMMARY OF PARAMETERS:
Info: 7 BONDS
Info: 8 ANGLES
Info:   8 HARMONIC
Info:   0 COSINE-BASED
Info: 9 DIHEDRAL
Info: 0 IMPROPER
Info: 0 CROSSTERM
Info: 0 VDW
Info: 21 VDW_PAIRS
Info: 0 NBTHOLE_PAIRS
Info: To read alchdata from file: mobley_3151666.pdb
Info: To read alchflag data from column: 5
Info: STRUCTURE SUMMARY:
Info: 2937 ATOMS
Info: 2936 BONDS
Info: 61 ANGLES
Info: 101 DIHEDRALS
Info: 0 IMPROPERS
Info: 0 CROSSTERMS
Info: 3081 EXCLUSIONS
Info: 2926 RIGID BONDS
Info: ALCH: 0 ATOMS TO DISAPPEAR IN FINAL STATE
Info: ALCH: 33 ATOMS TO APPEAR IN FINAL STATE
Info: 5885 DEGREES OF FREEDOM
Info: 979 HYDROGEN GROUPS
Info: 4 ATOMS IN LARGEST HYDROGEN GROUP
Info: 979 MIGRATION GROUPS
Info: 4 ATOMS IN LARGEST MIGRATION GROUP
Info: TOTAL MASS = 17597.8 amu
Info: TOTAL CHARGE = 0.000200033 e
Info: MASS DENSITY = 0.9669 g/cm^3
Info: ATOM DENSITY = 0.0971781 atoms/A^3
Info: ADDED 0 IMPLICIT EXCLUSIONS
Info: NONBONDED TABLE R-SQUARED SPACING: 0.0625
Info: NONBONDED TABLE SIZE: 705 POINTS
Info: REMOVING COM VELOCITY 0.0514493 0.0566933 0.108494
Info: Use 3D box decompostion in PME FFT.
Info: Updated CUDA force table with 4096 elements.
Info: Updated CUDA LJ table with 6 x 6 elements.
Info: Found 36 unique exclusion lists needing 160 bytes
TCL: Running for 1500000 steps
ETITLE: TS BOND ANGLE DIHED IMPRP ELECT VDW BOUNDARY MISC KINETIC TOTAL TEMP POTENTIAL TOTALAVG TEMPAVG PRESSURE GPRESSURE VOLUME PRESSAVG GPRESSAVG
ENERGY: 0 1.8862 14.3348 7.4935 0.0000 -10597.2984 1488.2931 0.0000 0.0000 1731.5286 -7353.7621 296.1240 -9085.2908 -7353.7621 296.1240 445.9026 517.9889 30222.8446 445.9026 517.9889
ENERGY: 300000 2.7377 9.8458 5.4510 0.0000 -10495.2418 1397.0503 0.0000 0.0000 1786.5955 -7293.5614 305.5415 -9080.1569 -7352.1343 301.4324 -247.0325 -182.3783 30162.1144 89.4657 157.0130
ENERGY: 600000 2.9999 13.0752 7.7780 0.0000 -10533.0951 1387.4626 0.0000 0.0000 1738.7143 -7383.0651 297.3529 -9121.7793 -7363.0791 299.7074 -589.2892 -499.6761 30163.5355 11.4487 83.1320
ENERGY: 900000 6.9085 15.5609 7.6451 0.0000 -10526.5386 1397.1114 0.0000 0.0000 1733.8356 -7365.4771 296.5185 -9099.3127 -7360.9033 298.7091 -195.5101 -179.9813 29826.4116 -118.0191 -48.9653
ENERGY: 1200000 3.1616 13.6207 5.8236 0.0000 -10471.2657 1373.7717 0.0000 0.0000 1768.9075 -7305.9805 302.5165 -9074.8881 -7351.4091 299.5152 -362.8727 -311.2880 29880.5009 -96.6646 -25.2097
ENERGY: 1500000 3.1344 12.1601 6.4572 0.0000 -10599.0903 1435.8950 0.0000 0.0000 1674.6657 -7466.7779 286.3994 -9141.4436 -7364.0755 298.5916 127.4382 199.6433 29811.1820 -76.6701 -10.6429
TCL: Running FEP window   2: Lambda1 0.05   Lambda2 0.1    [dLambda 0.05  ]
TCL: Setting parameter firsttimestep to 0
TCL: Setting parameter alchLambda to 0.05
Info: NONBONDED TABLE R-SQUARED SPACING: 0.0625
Info: NONBONDED TABLE SIZE: 705 POINTS
TCL: Setting parameter alchLambda2 to 0.1
Info: NONBONDED TABLE R-SQUARED SPACING: 0.0625
Info: NONBONDED TABLE SIZE: 705 POINTS
TCL: Running for 1500000 steps
ETITLE: TS BOND ANGLE DIHED IMPRP ELECT VDW BOUNDARY MISC KINETIC TOTAL TEMP POTENTIAL TOTALAVG TEMPAVG PRESSURE GPRESSURE VOLUME PRESSAVG GPRESSAVG
ENERGY: 0 3.1344 12.1601 6.4572 0.0000 -10599.0905 1440.9248 0.0000 0.0000 1673.7851 -7462.6290 286.2488 -9136.4141 -7462.6290 286.2488 134.3481 212.1261 29811.1820 134.3481 212.1261
ENERGY: 300000 5.1464 15.8737 8.1051 0.0000 -10401.9093 1295.2437 0.0000 0.0000 1766.3783 -7311.1620 302.0839 -9077.5403 -7380.7228 295.2027 -1093.0173 -1029.2399 30300.0140 -344.4634 -300.5322
ENERGY: 600000 2.9798 13.7566 6.0364 0.0000 -10561.2488 1390.0699 0.0000 0.0000 1750.5949 -7397.8111 299.3847 -9148.4060 -7377.2623 296.6600 -131.4993 -82.8584 29676.8615 -420.8798 -383.9453
ENERGY: 900000 3.1000 15.5934 5.2600 0.0000 -10489.0046 1365.9336 0.0000 0.0000 1691.8528 -7407.2647 289.3387 -9099.1175 -7383.5194 296.5564 -464.6814 -453.1095 29769.9869 -215.8746 -166.3595
ENERGY: 1200000 2.6487 15.0931 6.4919 0.0000 -10558.3528 1356.6500 0.0000 0.0000 1805.5017 -7371.9674 308.7748 -9177.4691 -7384.4069 298.3069 -532.4882 -447.6278 29506.8054 -213.2357 -152.0179
ENERGY: 1500000 2.5302 19.1465 8.1241 0.0000 -10657.9409 1471.6121 0.0000 0.0000 1692.3344 -7464.1936 289.4210 -9156.5280 -7387.7861 297.9873 230.2658 253.8607 29896.3284 -196.3192 -130.4168
TCL: Running FEP window   3: Lambda1 0.1    Lambda2 0.15000000000000002 [dLambda 0.05000000000000002]
TCL: Setting parameter firsttimestep to 0
TCL: Setting parameter alchLambda to 0.1
Info: NONBONDED TABLE R-SQUARED SPACING: 0.0625
Info: NONBONDED TABLE SIZE: 705 POINTS
TCL: Setting parameter alchLambda2 to 0.15000000000000002
Info: NONBONDED TABLE R-SQUARED SPACING: 0.0625
Info: NONBONDED TABLE SIZE: 705 POINTS
TCL: Running for 1500000 steps
ETITLE: TS BOND ANGLE DIHED IMPRP ELECT VDW BOUNDARY MISC KINETIC TOTAL TEMP POTENTIAL TOTALAVG TEMPAVG PRESSURE GPRESSURE VOLUME PRESSAVG GPRESSAVG
ENERGY: 0 2.5302 19.1465 8.1241 0.0000 -10657.9377 1471.5432 0.0000 0.0000 1691.4673 -7465.1263 289.2728 -9156.5937 -7465.1263 289.2728 173.2518 261.9458 29896.3284 173.2518 261.9458
ENERGY: 300000 1.5763 16.7344 6.2171 0.0000 -10433.6907 1316.0092 0.0000 0.0000 1709.4624 -7383.6913 292.3503 -9093.1537 -7373.0835 296.0162 -890.6790 -814.9360 30153.5737 -74.2429 3.0119
ENERGY: 600000 3.2580 13.9951 8.5352 0.0000 -10568.4753 1494.5629 0.0000 0.0000 1730.1327 -7317.9915 295.8853 -9048.1241 -7373.1396 295.0657 685.7009 715.9101 29847.8514 72.6372 146.2750
ENERGY: 900000 2.9984 16.2861 5.4343 0.0000 -10669.5837 1494.1161 0.0000 0.0000 1741.0160 -7409.7329 297.7465 -9150.7489 -7370.6619 295.9381 496.8584 594.4587 29657.7039 140.3538 208.2502
ENERGY: 1200000 3.3178 18.3919 6.7152 0.0000 -10608.3806 1447.5590 0.0000 0.0000 1788.7157 -7343.6809 305.9041 -9132.3966 -7367.0080 297.7045 106.8965 94.0027 30196.1733 120.7708 181.5261
ENERGY: 1500000 3.7447 15.8405 6.5029 0.0000 -10483.2395 1377.8233 0.0000 0.0000 1715.3173 -7364.0109 293.3516 -9079.3282 -7362.3097 298.0134 -246.9558 -221.9894 30303.5236 20.4980 79.7868
TCL: Running FEP window   4: Lambda1 0.15000000000000002 Lambda2 0.2    [dLambda 0.04999999999999999]
TCL: Setting parameter firsttimestep to 0
TCL: Setting parameter alchLambda to 0.15000000000000002
Info: NONBONDED TABLE R-SQUARED SPACING: 0.0625
Info: NONBONDED TABLE SIZE: 705 POINTS
TCL: Setting parameter alchLambda2 to 0.2
Info: NONBONDED TABLE R-SQUARED SPACING: 0.0625
Info: NONBONDED TABLE SIZE: 705 POINTS
TCL: Running for 1500000 steps
ETITLE: TS BOND ANGLE DIHED IMPRP ELECT VDW BOUNDARY MISC KINETIC TOTAL TEMP POTENTIAL TOTALAVG TEMPAVG PRESSURE GPRESSURE VOLUME PRESSAVG GPRESSAVG
ENERGY: 0 3.7447 15.8405 6.5029 0.0000 -10483.2411 1378.6585 0.0000 0.0000 1714.4632 -7364.0313 293.2055 -9078.4945 -7364.0313 293.2055 -299.2933 -215.8614 30303.5236 -299.2933 -215.8614
ENERGY: 300000 3.6576 12.0613 8.5098 0.0000 -10521.2530 1415.8408 0.0000 0.0000 1766.0365 -7315.1469 302.0255 -9081.1834 -7367.6653 296.0916 147.5890 183.3774 29590.0765 -262.6700 -221.6583
ENERGY: 600000 4.1023 16.9567 6.0787 0.0000 -10549.7833 1425.4374 0.0000 0.0000 1787.1981 -7310.0102 305.6445 -9097.2082 -7358.6377 298.2819 -74.6882 -17.5063 30304.5336 -167.2202 -125.9644
ENERGY: 900000 2.0227 13.2179 7.1130 0.0000 -10407.7352 1371.0221 0.0000 0.0000 1740.4843 -7273.8752 297.6556 -9014.3595 -7373.1782 297.3650 16.3891 97.1213 29804.3363 -123.8603 -62.8694
ENERGY: 1200000 3.4387 13.8829 6.4494 0.0000 -10750.4931 1525.1293 0.0000 0.0000 1771.3596 -7430.2332 302.9358 -9201.5929 -7385.2591 297.4086 708.4594 740.3734 29873.7608 -99.9313 -40.8910
ENERGY: 1500000 3.9025 15.3562 4.6717 0.0000 -10512.7808 1477.2949 0.0000 0.0000 1710.2341 -7301.3213 292.4822 -9011.5554 -7372.6348 297.6864 360.0257 477.9553 30236.9848 20.2701 84.6843
TCL: Running FEP window   5: Lambda1 0.2    Lambda2 0.25   [dLambda 0.04999999999999999]
TCL: Setting parameter firsttimestep to 0
TCL: Setting parameter alchLambda to 0.2
Info: NONBONDED TABLE R-SQUARED SPACING: 0.0625
Info: NONBONDED TABLE SIZE: 705 POINTS
TCL: Setting parameter alchLambda2 to 0.25
Info: NONBONDED TABLE R-SQUARED SPACING: 0.0625
Info: NONBONDED TABLE SIZE: 705 POINTS
TCL: Running for 1500000 steps
ETITLE: TS BOND ANGLE DIHED IMPRP ELECT VDW BOUNDARY MISC KINETIC TOTAL TEMP POTENTIAL TOTALAVG TEMPAVG PRESSURE GPRESSURE VOLUME PRESSAVG GPRESSAVG
ENERGY: 0 3.9025 15.3562 4.6717 0.0000 -10512.7803 1478.7152 0.0000 0.0000 1709.3404 -7300.7943 292.3294 -9010.1347 -7300.7943 292.3294 396.2556 488.1803 30236.9848 396.2556 488.1803
ENERGY: 300000 3.2109 10.2039 7.4805 0.0000 -10544.1950 1395.2885 0.0000 0.0000 1740.7136 -7387.2977 297.6948 -9128.0113 -7368.2924 295.5828 -466.2240 -397.8801 30116.5025 -29.5450 40.9746
ENERGY: 600000 4.8867 11.2790 9.0831 0.0000 -10528.4342 1354.6251 0.0000 0.0000 1782.4796 -7366.0807 304.8376 -9148.5603 -7369.1532 298.1867 -534.4590 -462.7193 29864.2975 -86.9261 -21.4335
ENERGY: 900000 0.5546 20.4161 9.8952 0.0000 -10531.3304 1384.9745 0.0000 0.0000 1788.6690 -7326.8211 305.8961 -9115.4901 -7363.8762 298.9212 -142.7346 -55.9211 29944.1061 -86.5079 -28.9424
ENERGY: 1200000 6.2001 12.7621 6.3807 0.0000 -10648.2702 1494.2160 0.0000 0.0000 1758.5927 -7370.1186 300.7525 -9128.7113 -7355.0998 299.6410 396.4466 447.1564 30093.2895 -21.4635 35.7230
ENERGY: 1500000 3.4031 17.4264 4.7107 0.0000 -10486.3097 1357.7694 0.0000 0.0000 1790.1058 -7312.8944 306.1418 -9103.0001 -7352.4635 300.2384 -532.2862 -517.2814 30083.9798 -38.4622 15.5564
TCL: Running FEP window   6: Lambda1 0.25   Lambda2 0.3    [dLambda 0.04999999999999999]
TCL: Setting parameter firsttimestep to 0
TCL: Setting parameter alchLambda to 0.25
Info: NONBONDED TABLE R-SQUARED SPACING: 0.0625
Info: NONBONDED TABLE SIZE: 705 POINTS
TCL: Setting parameter alchLambda2 to 0.3
Info: NONBONDED TABLE R-SQUARED SPACING: 0.0625
Info: NONBONDED TABLE SIZE: 705 POINTS
TCL: Running for 1500000 steps
ETITLE: TS BOND ANGLE DIHED IMPRP ELECT VDW BOUNDARY MISC KINETIC TOTAL TEMP POTENTIAL TOTALAVG TEMPAVG PRESSURE GPRESSURE VOLUME PRESSAVG GPRESSAVG
ENERGY: 0 3.4031 17.4264 4.7107 0.0000 -10486.3096 1359.0935 0.0000 0.0000 1789.2605 -7312.4154 305.9972 -9101.6759 -7312.4154 305.9972 -584.0539 -503.0751 30083.9798 -584.0539 -503.0751
ENERGY: 300000 3.7563 17.5202 8.0736 0.0000 -10511.0917 1370.1747 0.0000 0.0000 1718.3327 -7393.2342 293.8672 -9111.5669 -7373.1121 297.4005 -511.8186 -432.4310 30215.9424 -168.7293 -102.0899
ENERGY: 600000 1.6889 13.7293 7.4955 0.0000 -10627.1316 1458.4328 0.0000 0.0000 1802.9197 -7342.8655 308.3332 -9145.7852 -7357.8907 299.2193 359.4312 420.9152 29901.4975 -110.2091 -36.0699
ENERGY: 900000 3.9559 14.2638 5.3120 0.0000 -10632.7087 1447.1033 0.0000 0.0000 1778.0383 -7384.0354 304.0780 -9162.0738 -7348.3023 300.8430 -30.0245 40.2444 29949.9251 -32.1389 41.8144
ENERGY: 1200000 2.0322 12.6355 6.7533 0.0000 -10613.0556 1416.7988 0.0000 0.0000 1723.5441 -7451.2918 294.7585 -9174.8359 -7353.9189 300.6073 -180.9458 -86.2793 29752.2652 -10.0280 64.7361
ENERGY: 1500000 1.6140 17.3021 6.7122 0.0000 -10519.5824 1401.5018 0.0000 0.0000 1761.6551 -7330.7970 301.2762 -9092.4521 -7353.0739 300.7481 -62.8049 -4.5254 30052.4303 -59.9068 12.1944
TCL: Running FEP window   7: Lambda1 0.3    Lambda2 0.35   [dLambda 0.04999999999999999]
TCL: Setting parameter firsttimestep to 0
TCL: Setting parameter alchLambda to 0.3
Info: NONBONDED TABLE R-SQUARED SPACING: 0.0625
Info: NONBONDED TABLE SIZE: 705 POINTS
TCL: Setting parameter alchLambda2 to 0.35
Info: NONBONDED TABLE R-SQUARED SPACING: 0.0625
Info: NONBONDED TABLE SIZE: 705 POINTS
TCL: Running for 1500000 steps
ETITLE: TS BOND ANGLE DIHED IMPRP ELECT VDW BOUNDARY MISC KINETIC TOTAL TEMP POTENTIAL TOTALAVG TEMPAVG PRESSURE GPRESSURE VOLUME PRESSAVG GPRESSAVG
ENERGY: 0 1.6140 17.3021 6.7122 0.0000 -10519.5820 1401.0732 0.0000 0.0000 1760.7627 -7332.1177 301.1236 -9092.8804 -7332.1177 301.1236 -101.1551 -2.7032 30052.4303 -101.1551 -2.7032
ENERGY: 300000 1.4347 17.6752 6.1464 0.0000 -10458.3343 1331.6558 0.0000 0.0000 1710.9818 -7390.4405 292.6101 -9101.4223 -7360.6091 300.4898 -753.3723 -658.5963 29984.6842 -295.9816 -204.1677
ENERGY: 600000 2.8542 16.9888 7.2508 0.0000 -10679.1532 1477.6389 0.0000 0.0000 1773.9492 -7400.4713 303.3787 -9174.4205 -7385.7449 300.7320 558.0838 662.6340 29489.5832 -228.9814 -145.5987
ENERGY: 900000 4.2021 17.3766 6.7167 0.0000 -10464.8903 1325.0536 0.0000 0.0000 1690.7534 -7420.7880 289.1507 -9111.5414 -7379.9747 300.7105 -914.5003 -866.2869 29937.8020 -226.8272 -160.8282
ENERGY: 1200000 1.6977 20.3682 7.6570 0.0000 -10641.4578 1509.5855 0.0000 0.0000 1756.5792 -7345.5701 300.4081 -9102.1493 -7364.7918 300.5678 871.3609 932.5723 29800.4197 -141.2923 -67.5272
ENERGY: 1500000 4.8213 13.4626 7.1640 0.0000 -10588.1996 1418.0875 0.0000 0.0000 1770.8619 -7373.8022 302.8507 -9144.6641 -7360.5101 301.0181 -380.9444 -283.4645 30420.3625 -145.5950 -74.2334
TCL: Running FEP window   8: Lambda1 0.35   Lambda2 0.39999999999999997 [dLambda 0.04999999999999999]
TCL: Setting parameter firsttimestep to 0
TCL: Setting parameter alchLambda to 0.35
Info: NONBONDED TABLE R-SQUARED SPACING: 0.0625
Info: NONBONDED TABLE SIZE: 705 POINTS
TCL: Setting parameter alchLambda2 to 0.39999999999999997
Info: NONBONDED TABLE R-SQUARED SPACING: 0.0625
Info: NONBONDED TABLE SIZE: 705 POINTS
TCL: Running for 1500000 steps
ETITLE: TS BOND ANGLE DIHED IMPRP ELECT VDW BOUNDARY MISC KINETIC TOTAL TEMP POTENTIAL TOTALAVG TEMPAVG PRESSURE GPRESSURE VOLUME PRESSAVG GPRESSAVG
ENERGY: 0 4.8213 13.4626 7.1640 0.0000 -10588.1993 1417.6598 0.0000 0.0000 1769.9712 -7375.1203 302.6984 -9145.0915 -7375.1203 302.6984 -358.7497 -277.9239 30420.3625 -358.7497 -277.9239
ENERGY: 300000 2.9169 21.0621 9.4020 0.0000 -10608.6408 1474.9934 0.0000 0.0000 1707.2168 -7393.0496 291.9662 -9100.2664 -7354.2128 297.8107 69.3575 162.7583 30613.5148 -148.4095 -69.2215
ENERGY: 600000 3.4082 13.9764 8.3198 0.0000 -10494.5619 1426.6028 0.0000 0.0000 1692.9087 -7349.3459 289.5193 -9042.2547 -7354.3039 295.8550 -27.7243 38.1379 30431.5922 -273.1359 -201.9893
ENERGY: 900000 1.3384 17.6315 7.5466 0.0000 -10640.4776 1455.6627 0.0000 0.0000 1793.5481 -7364.7502 306.7305 -9158.2983 -7352.1372 299.1748 43.4685 149.2104 29990.5822 -147.8805 -86.3696
ENERGY: 1200000 6.5907 12.3324 8.8811 0.0000 -10488.6892 1361.4434 0.0000 0.0000 1818.5310 -7280.9105 311.0030 -9099.4415 -7348.0368 299.6883 -604.9666 -552.5727 30389.1392 -173.1644 -109.6629
ENERGY: 1500000 1.8343 13.2866 4.6582 0.0000 -10484.4633 1403.5375 0.0000 0.0000 1755.2187 -7305.9279 300.1754 -9061.1467 -7349.9347 299.4414 -20.5208 74.6006 30384.9291 -201.9307 -143.1922
TCL: Running FEP window   9: Lambda1 0.39999999999999997 Lambda2 0.44999999999999996 [dLambda 0.04999999999999999]
TCL: Setting parameter firsttimestep to 0
TCL: Setting parameter alchLambda to 0.39999999999999997
Info: NONBONDED TABLE R-SQUARED SPACING: 0.0625
Info: NONBONDED TABLE SIZE: 705 POINTS
TCL: Setting parameter alchLambda2 to 0.44999999999999996
Info: NONBONDED TABLE R-SQUARED SPACING: 0.0625
Info: NONBONDED TABLE SIZE: 705 POINTS
TCL: Running for 1500000 steps
ETITLE: TS BOND ANGLE DIHED IMPRP ELECT VDW BOUNDARY MISC KINETIC TOTAL TEMP POTENTIAL TOTALAVG TEMPAVG PRESSURE GPRESSURE VOLUME PRESSAVG GPRESSAVG
ENERGY: 0 1.8343 13.2866 4.6582 0.0000 -10484.4630 1403.5526 0.0000 0.0000 1754.3061 -7306.8252 300.0194 -9061.1313 -7306.8252 300.0194 -0.5703 83.2138 30384.9291 -0.5703 83.2138
ENERGY: 300000 3.9532 17.4365 5.8684 0.0000 -10509.3684 1362.6828 0.0000 0.0000 1770.1762 -7349.2513 302.7334 -9119.4275 -7361.5819 300.3603 -110.1696 16.7352 29496.3858 -290.3227 -184.5582
ENERGY: 600000 2.6463 16.2436 6.0242 0.0000 -10624.2481 1427.9302 0.0000 0.0000 1737.7565 -7433.6474 297.1891 -9171.4038 -7362.5770 300.1706 53.8530 108.3522 29874.0035 -129.4656 -52.8949
ENERGY: 900000 3.2382 17.1585 5.7635 0.0000 -10483.7547 1409.6179 0.0000 0.0000 1751.7447 -7296.2319 299.5813 -9047.9766 -7353.7850 298.9457 -100.9440 17.1100 30221.8731 -82.0481 -4.4169
ENERGY: 1200000 2.3146 15.1718 5.3287 0.0000 -10462.0156 1361.4538 0.0000 0.0000 1745.6957 -7332.0511 298.5468 -9077.7467 -7353.0569 298.7010 -279.2796 -185.7547 30162.8346 -155.5109 -80.8171
ENERGY: 1500000 4.7001 9.8057 6.6088 0.0000 -10564.6316 1417.9422 0.0000 0.0000 1736.3372 -7389.2376 296.9464 -9125.5749 -7344.7991 299.2960 -71.7393 -35.6220 30095.9101 -175.8397 -105.2888
TCL: Running FEP window  10: Lambda1 0.44999999999999996 Lambda2 0.49999999999999994 [dLambda 0.04999999999999999]
TCL: Setting parameter firsttimestep to 0
TCL: Setting parameter alchLambda to 0.44999999999999996
Info: NONBONDED TABLE R-SQUARED SPACING: 0.0625
Info: NONBONDED TABLE SIZE: 705 POINTS
TCL: Setting parameter alchLambda2 to 0.49999999999999994
Info: NONBONDED TABLE R-SQUARED SPACING: 0.0625
Info: NONBONDED TABLE SIZE: 705 POINTS
TCL: Running for 1500000 steps
ETITLE: TS BOND ANGLE DIHED IMPRP ELECT VDW BOUNDARY MISC KINETIC TOTAL TEMP POTENTIAL TOTALAVG TEMPAVG PRESSURE GPRESSURE VOLUME PRESSAVG GPRESSAVG
ENERGY: 0 4.7001 9.8057 6.6088 0.0000 -10564.6317 1417.1001 0.0000 0.0000 1735.4918 -7390.9253 296.8018 -9126.4171 -7390.9253 296.8018 -114.0245 -35.1149 30095.9101 -114.0245 -35.1149
ENERGY: 300000 1.5765 19.5138 6.3469 0.0000 -10521.4039 1414.1087 0.0000 0.0000 1818.4800 -7261.3779 310.9943 -9079.8580 -7325.7383 301.6077 254.0651 302.1671 30007.7281 -212.1407 -142.1224
ENERGY: 600000 3.1358 18.5662 5.4067 0.0000 -10475.9278 1359.3381 0.0000 0.0000 1746.0062 -7343.4748 298.5999 -9089.4810 -7344.9777 299.9626 -272.1079 -216.9446 30135.2638 37.1732 114.3015
ENERGY: 900000 2.1741 12.9211 5.0397 0.0000 -10612.5253 1406.3839 0.0000 0.0000 1696.9801 -7489.0265 290.2155 -9186.0066 -7355.9789 298.7890 -335.2784 -263.0462 29972.9166 -119.6107 -47.3026
ENERGY: 1200000 4.8402 14.1940 7.1620 0.0000 -10451.8428 1362.5536 0.0000 0.0000 1689.5444 -7373.5486 288.9439 -9063.0930 -7356.3105 298.2009 -302.7071 -242.1248 29963.1381 -195.7854 -132.4037
ENERGY: 1500000 6.6050 12.3568 6.7197 0.0000 -10646.8773 1461.0485 0.0000 0.0000 1810.1765 -7349.9707 309.5743 -9160.1473 -7349.5680 299.8419 134.2818 193.9420 29946.5440 -171.6910 -112.4840
TCL: Running FEP window  11: Lambda1 0.49999999999999994 Lambda2 0.5499999999999999 [dLambda 0.04999999999999999]
TCL: Setting parameter firsttimestep to 0
TCL: Setting parameter alchLambda to 0.49999999999999994
Info: NONBONDED TABLE R-SQUARED SPACING: 0.0625
Info: NONBONDED TABLE SIZE: 705 POINTS
TCL: Setting parameter alchLambda2 to 0.5499999999999999
Info: NONBONDED TABLE R-SQUARED SPACING: 0.0625
Info: NONBONDED TABLE SIZE: 705 POINTS
TCL: Running for 1500000 steps
ETITLE: TS BOND ANGLE DIHED IMPRP ELECT VDW BOUNDARY MISC KINETIC TOTAL TEMP POTENTIAL TOTALAVG TEMPAVG PRESSURE GPRESSURE VOLUME PRESSAVG GPRESSAVG
ENERGY: 0 6.6050 12.3568 6.7197 0.0000 -10646.8768 1461.6146 0.0000 0.0000 1809.2990 -7350.2816 309.4242 -9159.5806 -7350.2816 309.4242 127.7388 211.1782 29946.5440 127.7388 211.1782
ENERGY: 300000 3.1041 13.6301 7.4523 0.0000 -10561.5754 1431.6544 0.0000 0.0000 1790.7091 -7315.0254 306.2450 -9105.7346 -7357.1271 305.3000 260.6679 316.0338 30045.1807 -102.0905 -31.6490
ENERGY: 600000 1.6570 14.9541 6.1396 0.0000 -10688.4963 1522.7568 0.0000 0.0000 1761.2658 -7381.7229 301.2096 -9142.9887 -7371.3969 302.8032 595.2381 631.7318 30371.1215 -34.9016 17.8474
ENERGY: 900000 2.1722 11.4911 7.9428 0.0000 -10685.5574 1496.7983 0.0000 0.0000 1696.7191 -7470.4339 290.1709 -9167.1530 -7373.4433 302.2677 471.6743 544.8943 30007.6030 5.3726 58.1450
ENERGY: 1200000 2.9008 11.7060 5.9608 0.0000 -10661.0225 1522.4765 0.0000 0.0000 1702.0762 -7415.9023 291.0871 -9117.9785 -7376.1558 301.4812 740.7421 768.6782 30179.1958 38.7236 84.6398
ENERGY: 1500000 4.5645 15.4623 8.1438 0.0000 -10584.2101 1381.7578 0.0000 0.0000 1725.4846 -7448.7971 295.0903 -9174.2817 -7378.6531 301.1936 -597.5563 -546.6652 30194.1139 48.8210 101.4592
TCL: Running FEP window  12: Lambda1 0.5499999999999999 Lambda2 0.6    [dLambda 0.050000000000000044]
TCL: Setting parameter firsttimestep to 0
TCL: Setting parameter alchLambda to 0.5499999999999999
Info: NONBONDED TABLE R-SQUARED SPACING: 0.0625
Info: NONBONDED TABLE SIZE: 705 POINTS
TCL: Setting parameter alchLambda2 to 0.6
Info: NONBONDED TABLE R-SQUARED SPACING: 0.0625
Info: NONBONDED TABLE SIZE: 705 POINTS
TCL: Running for 1500000 steps
ETITLE: TS BOND ANGLE DIHED IMPRP ELECT VDW BOUNDARY MISC KINETIC TOTAL TEMP POTENTIAL TOTALAVG TEMPAVG PRESSURE GPRESSURE VOLUME PRESSAVG GPRESSAVG
ENERGY: 0 4.5645 15.4623 8.1438 0.0000 -10584.4428 1381.7883 0.0000 0.0000 1724.6123 -7449.8716 294.9412 -9174.4839 -7449.8716 294.9412 -618.5933 -538.8688 30194.1139 -618.5933 -538.8688
ENERGY: 300000 5.0356 17.8355 9.5775 0.0000 -10608.3104 1409.9471 0.0000 0.0000 1723.0721 -7442.8425 294.6778 -9165.9147 -7404.1962 297.5897 -216.5685 -77.4327 29869.3597 -376.7274 -285.0380
ENERGY: 600000 3.6901 20.1607 9.0349 0.0000 -10605.6725 1436.0543 0.0000 0.0000 1723.0833 -7413.6492 294.6797 -9136.7324 -7405.3987 296.0615 171.8123 187.6118 29810.0863 -171.7076 -103.4353
ENERGY: 900000 2.8393 18.2674 6.3345 0.0000 -10634.8550 1501.6970 0.0000 0.0000 1716.5823 -7389.1346 293.5679 -9105.7169 -7392.5661 296.8040 685.6682 748.3974 29831.9017 -64.6025 -1.4299
ENERGY: 1200000 4.6171 16.1607 7.1194 0.0000 -10532.5284 1379.1441 0.0000 0.0000 1722.0247 -7403.4623 294.4986 -9125.4870 -7398.3776 296.6266 -493.8593 -454.2694 30418.3038 -60.4978 5.8052
ENERGY: 1500000 3.0015 12.8867 6.6335 0.0000 -10666.8393 1501.2550 0.0000 0.0000 1752.7819 -7390.2807 299.7587 -9143.0626 -7390.4676 297.3768 444.4661 504.6316 30203.7757 -54.5875 12.8050
TCL: Running FEP window  13: Lambda1 0.6    Lambda2 0.65   [dLambda 0.050000000000000044]
TCL: Setting parameter firsttimestep to 0
TCL: Setting parameter alchLambda to 0.6
Info: NONBONDED TABLE R-SQUARED SPACING: 0.0625
Info: NONBONDED TABLE SIZE: 705 POINTS
TCL: Setting parameter alchLambda2 to 0.65
Info: NONBONDED TABLE R-SQUARED SPACING: 0.0625
Info: NONBONDED TABLE SIZE: 705 POINTS
TCL: Running for 1500000 steps
ETITLE: TS BOND ANGLE DIHED IMPRP ELECT VDW BOUNDARY MISC KINETIC TOTAL TEMP POTENTIAL TOTALAVG TEMPAVG PRESSURE GPRESSURE VOLUME PRESSAVG GPRESSAVG
ENERGY: 0 3.0014 12.8867 6.6335 0.0000 -10667.1301 1500.5440 0.0000 0.0000 1751.9181 -7392.1464 299.6110 -9144.0645 -7392.1464 299.6110 404.6408 507.1215 30203.7757 404.6408 507.1215
ENERGY: 300000 1.5936 16.3735 7.1766 0.0000 -10432.7495 1355.6957 0.0000 0.0000 1718.8503 -7333.0597 293.9558 -9051.9100 -7354.2901 300.4527 -211.0895 -193.7900 29999.2005 134.1001 204.4876
ENERGY: 600000 1.7645 18.7225 8.9384 0.0000 -10598.1431 1455.7273 0.0000 0.0000 1737.1934 -7375.7970 297.0928 -9112.9904 -7345.0333 300.3701 421.5680 382.5162 29953.6834 -13.0826 47.8303
ENERGY: 900000 2.6939 11.2099 5.3077 0.0000 -10439.9212 1341.0733 0.0000 0.0000 1739.9989 -7339.6375 297.5726 -9079.6364 -7340.2489 301.8045 -597.0099 -587.9492 30337.3336 -18.2049 31.7831
ENERGY: 1200000 2.3468 10.4283 6.4279 0.0000 -10535.8250 1416.4939 0.0000 0.0000 1694.6993 -7405.4287 289.8255 -9100.1280 -7345.8135 301.1449 -141.1560 -70.4224 30735.9541 28.6440 77.2532
ENERGY: 1500000 5.6098 18.9007 5.6293 0.0000 -10419.0385 1291.4399 0.0000 0.0000 1737.2233 -7360.2356 297.0979 -9097.4589 -7348.4621 300.3094 -916.6479 -905.9497 30211.1610 -97.0067 -44.1072
TCL: Running FEP window  14: Lambda1 0.65   Lambda2 0.7000000000000001 [dLambda 0.050000000000000044]
TCL: Setting parameter firsttimestep to 0
TCL: Setting parameter alchLambda to 0.65
Info: NONBONDED TABLE R-SQUARED SPACING: 0.0625
Info: NONBONDED TABLE SIZE: 705 POINTS
TCL: Setting parameter alchLambda2 to 0.7000000000000001
Info: NONBONDED TABLE R-SQUARED SPACING: 0.0625
Info: NONBONDED TABLE SIZE: 705 POINTS
TCL: Running for 1500000 steps
ETITLE: TS BOND ANGLE DIHED IMPRP ELECT VDW BOUNDARY MISC KINETIC TOTAL TEMP POTENTIAL TOTALAVG TEMPAVG PRESSURE GPRESSURE VOLUME PRESSAVG GPRESSAVG
ENERGY: 0 5.6098 18.9007 5.6293 0.0000 -10418.9527 1291.3419 0.0000 0.0000 1736.3825 -7361.0886 296.9541 -9097.4711 -7361.0886 296.9541 -951.6598 -891.5414 30211.1610 -951.6598 -891.5414
ENERGY: 300000 3.2203 15.3537 6.4677 0.0000 -10568.4768 1438.1519 0.0000 0.0000 1743.9036 -7361.3795 298.2404 -9105.2831 -7351.8474 300.5438 46.0272 167.2090 30424.4322 -107.4042 -32.6460
ENERGY: 600000 5.9844 17.8133 10.4305 0.0000 -10575.8824 1444.5825 0.0000 0.0000 1771.5542 -7325.5176 302.9691 -9097.0718 -7354.5125 300.7465 253.0676 297.6277 30349.7750 -96.8888 -27.7664
ENERGY: 900000 4.9802 15.1412 5.9694 0.0000 -10604.3018 1403.7662 0.0000 0.0000 1788.5509 -7385.8938 305.8759 -9174.4447 -7376.9227 300.7340 -241.4183 -115.1988 29874.1066 -81.3038 -14.4103
ENERGY: 1200000 6.6847 15.5953 6.9672 0.0000 -10522.8044 1406.1796 0.0000 0.0000 1785.8027 -7301.5750 305.4059 -9087.3776 -7356.6028 301.5328 -261.7464 -164.3101 30159.9516 -25.5761 37.5573
ENERGY: 1500000 3.0533 16.1657 7.4612 0.0000 -10711.3126 1527.4280 0.0000 0.0000 1749.1677 -7408.0366 299.1406 -9157.2043 -7362.3984 301.3754 605.6149 709.5600 30345.7464 9.0322 77.5766
TCL: Running FEP window  15: Lambda1 0.7000000000000001 Lambda2 0.7500000000000001 [dLambda 0.050000000000000044]
TCL: Setting parameter firsttimestep to 0
TCL: Setting parameter alchLambda to 0.7000000000000001
Info: NONBONDED TABLE R-SQUARED SPACING: 0.0625
Info: NONBONDED TABLE SIZE: 705 POINTS
TCL: Setting parameter alchLambda2 to 0.7500000000000001
Info: NONBONDED TABLE R-SQUARED SPACING: 0.0625
Info: NONBONDED TABLE SIZE: 705 POINTS
TCL: Running for 1500000 steps
ETITLE: TS BOND ANGLE DIHED IMPRP ELECT VDW BOUNDARY MISC KINETIC TOTAL TEMP POTENTIAL TOTALAVG TEMPAVG PRESSURE GPRESSURE VOLUME PRESSAVG GPRESSAVG
ENERGY: 0 3.0534 16.1657 7.4612 0.0000 -10711.4619 1527.7056 0.0000 0.0000 1748.2834 -7408.7926 298.9894 -9157.0760 -7408.7926 298.9894 647.0154 725.8950 30345.7464 647.0154 725.8950
ENERGY: 300000 3.1205 20.0982 6.4487 0.0000 -10574.7429 1430.6570 0.0000 0.0000 1782.2307 -7332.1878 304.7950 -9114.4185 -7375.7191 303.8354 243.4969 312.4768 30036.9132 368.9158 431.9077
ENERGY: 600000 3.0274 12.6308 8.9970 0.0000 -10456.5885 1372.3593 0.0000 0.0000 1703.3781 -7356.1958 291.3097 -9059.5739 -7343.4993 302.0964 -543.5786 -440.6987 30738.8657 137.0476 210.4811
ENERGY: 900000 6.0754 14.8018 5.5977 0.0000 -10592.0387 1397.3566 0.0000 0.0000 1787.7003 -7380.5069 305.7304 -9168.2072 -7354.9534 301.1484 -73.4848 -125.3035 29861.6970 50.6872 105.5082
ENERGY: 1200000 2.9868 16.8760 8.0932 0.0000 -10537.4906 1390.1578 0.0000 0.0000 1796.6963 -7322.6805 307.2689 -9119.3768 -7358.6175 301.3648 -81.4439 -24.6247 30036.9503 33.1206 83.7766
ENERGY: 1500000 2.0715 17.1349 7.6643 0.0000 -10511.7305 1380.9268 0.0000 0.0000 1660.9856 -7442.9473 284.0598 -9103.9329 -7363.5504 300.7147 -28.7662 -40.4136 30044.5641 16.1865 63.8685
TCL: Running FEP window  16: Lambda1 0.7500000000000001 Lambda2 0.8000000000000002 [dLambda 0.050000000000000044]
TCL: Setting parameter firsttimestep to 0
TCL: Setting parameter alchLambda to 0.7500000000000001
Info: NONBONDED TABLE R-SQUARED SPACING: 0.0625
Info: NONBONDED TABLE SIZE: 705 POINTS
TCL: Setting parameter alchLambda2 to 0.8000000000000002
Info: NONBONDED TABLE R-SQUARED SPACING: 0.0625
Info: NONBONDED TABLE SIZE: 705 POINTS
TCL: Running for 1500000 steps
ETITLE: TS BOND ANGLE DIHED IMPRP ELECT VDW BOUNDARY MISC KINETIC TOTAL TEMP POTENTIAL TOTALAVG TEMPAVG PRESSURE GPRESSURE VOLUME PRESSAVG GPRESSAVG
ENERGY: 0 2.0715 17.1349 7.6643 0.0000 -10511.6304 1380.8527 0.0000 0.0000 1660.1164 -7443.7906 283.9111 -9103.9070 -7443.7906 283.9111 -90.5778 -26.7260 30044.5641 -90.5778 -26.7260
ENERGY: 300000 1.8580 17.3804 8.1191 0.0000 -10436.6400 1313.1926 0.0000 0.0000 1709.4543 -7386.6355 292.3489 -9096.0899 -7400.4506 290.8919 -916.1090 -904.6388 30689.4035 -277.1232 -236.6718
ENERGY: 600000 2.7331 21.9150 8.3771 0.0000 -10563.3283 1436.2392 0.0000 0.0000 1746.6189 -7347.4449 298.7047 -9094.0639 -7387.5093 293.9023 475.3656 473.4185 29752.6714 -2.3237 34.7787
ENERGY: 900000 5.7483 13.1793 8.9572 0.0000 -10543.0894 1420.6126 0.0000 0.0000 1760.2795 -7334.3125 301.0409 -9094.5920 -7384.3736 296.0884 172.6696 151.8191 30482.2843 -47.7896 -14.9269
ENERGY: 1200000 3.5228 16.0538 8.5893 0.0000 -10658.6318 1455.9714 0.0000 0.0000 1696.7529 -7477.7416 290.1767 -9174.4945 -7377.3493 296.7337 429.9139 474.9921 29692.0891 -55.0358 -19.1245
ENERGY: 1500000 1.7676 12.5798 6.0402 0.0000 -10581.4550 1442.1686 0.0000 0.0000 1764.3223 -7354.5765 301.7323 -9118.8988 -7376.1253 297.8169 351.4410 315.0618 30320.6969 -68.9170 -36.0903
TCL: Running FEP window  17: Lambda1 0.8000000000000002 Lambda2 0.8500000000000002 [dLambda 0.050000000000000044]
TCL: Setting parameter firsttimestep to 0
TCL: Setting parameter alchLambda to 0.8000000000000002
Info: NONBONDED TABLE R-SQUARED SPACING: 0.0625
Info: NONBONDED TABLE SIZE: 705 POINTS
TCL: Setting parameter alchLambda2 to 0.8500000000000002
Info: NONBONDED TABLE R-SQUARED SPACING: 0.0625
Info: NONBONDED TABLE SIZE: 705 POINTS
TCL: Running for 1500000 steps
ETITLE: TS BOND ANGLE DIHED IMPRP ELECT VDW BOUNDARY MISC KINETIC TOTAL TEMP POTENTIAL TOTALAVG TEMPAVG PRESSURE GPRESSURE VOLUME PRESSAVG GPRESSAVG
ENERGY: 0 1.7676 12.5798 6.0402 0.0000 -10582.9870 1443.9083 0.0000 0.0000 1763.4152 -7355.2759 301.5772 -9118.6911 -7355.2759 301.5772 264.5848 349.3307 30320.6969 264.5848 349.3307
ENERGY: 300000 2.4253 17.1316 5.8922 0.0000 -10401.6746 1341.7267 0.0000 0.0000 1771.2397 -7263.2592 302.9153 -9034.4990 -7331.8239 302.6797 -475.1852 -372.5984 30585.1133 -220.4401 -152.5162
ENERGY: 600000 2.9529 16.4064 5.3803 0.0000 -10596.7280 1448.8916 0.0000 0.0000 1741.9288 -7381.1679 297.9026 -9123.0967 -7353.0374 299.7300 374.7974 448.4682 30059.2634 -209.6240 -123.1113
ENERGY: 900000 2.4652 20.0744 11.8711 0.0000 -10545.5392 1382.5091 0.0000 0.0000 1734.2220 -7394.3974 296.5846 -9128.6194 -7347.9081 300.4836 -181.8556 -117.9385 29862.7899 -227.5358 -147.8647
ENERGY: 1200000 4.6425 15.9753 5.9811 0.0000 -10598.5422 1457.2487 0.0000 0.0000 1740.9685 -7373.7260 297.7384 -9114.6945 -7339.4551 301.4735 71.5147 158.8226 30207.6560 -163.3412 -90.3076
ENERGY: 1500000 2.7508 12.3143 7.1456 0.0000 -10704.6595 1537.7830 0.0000 0.0000 1727.1256 -7417.5403 295.3710 -9144.6659 -7342.3069 300.8098 810.7992 860.9136 30166.1242 -108.8576 -38.3752
TCL: Running FEP window  18: Lambda1 0.8500000000000002 Lambda2 0.9000000000000002 [dLambda 0.050000000000000044]
TCL: Setting parameter firsttimestep to 0
TCL: Setting parameter alchLambda to 0.8500000000000002
Info: NONBONDED TABLE R-SQUARED SPACING: 0.0625
Info: NONBONDED TABLE SIZE: 705 POINTS
TCL: Setting parameter alchLambda2 to 0.9000000000000002
Info: NONBONDED TABLE R-SQUARED SPACING: 0.0625
Info: NONBONDED TABLE SIZE: 705 POINTS
TCL: Running for 1500000 steps
ETITLE: TS BOND ANGLE DIHED IMPRP ELECT VDW BOUNDARY MISC KINETIC TOTAL TEMP POTENTIAL TOTALAVG TEMPAVG PRESSURE GPRESSURE VOLUME PRESSAVG GPRESSAVG
ENERGY: 0 2.7508 12.3143 7.1456 0.0000 -10705.7226 1537.8458 0.0000 0.0000 1726.2587 -7419.4075 295.2227 -9145.6662 -7419.4075 295.2227 784.1276 877.4519 30166.1242 784.1276 877.4519
ENERGY: 300000 5.3599 15.3163 5.2847 0.0000 -10582.8763 1427.9675 0.0000 0.0000 1843.9393 -7285.0086 315.3483 -9128.9479 -7355.0434 302.2590 10.3860 20.0535 30412.4976 381.6731 445.3205
ENERGY: 600000 1.8507 13.0158 7.4853 0.0000 -10637.0868 1466.2508 0.0000 0.0000 1760.9445 -7387.5398 301.1547 -9148.4843 -7351.9570 302.0163 303.1365 436.6470 30270.7748 234.6583 304.0543
ENERGY: 900000 2.8154 20.7256 9.2561 0.0000 -10512.7335 1367.8698 0.0000 0.0000 1735.8034 -7376.2631 296.8551 -9112.0666 -7347.4959 302.3273 -264.3437 -253.3883 30372.1912 158.2380 212.1139
ENERGY: 1200000 8.0745 14.7101 4.6198 0.0000 -10608.0297 1458.4355 0.0000 0.0000 1690.3600 -7431.8298 289.0834 -9122.1899 -7355.1372 300.6258 189.6149 258.0857 30265.9467 153.3608 206.9659
ENERGY: 1500000 1.9110 17.3915 6.2990 0.0000 -10602.6846 1428.9538 0.0000 0.0000 1740.8211 -7407.3082 297.7132 -9148.1293 -7361.8803 299.6134 176.3858 272.8269 29977.0267 130.4870 186.6666
TCL: Running FEP window  19: Lambda1 0.9000000000000002 Lambda2 0.9500000000000003 [dLambda 0.050000000000000044]
TCL: Setting parameter firsttimestep to 0
TCL: Setting parameter alchLambda to 0.9000000000000002
Info: NONBONDED TABLE R-SQUARED SPACING: 0.0625
Info: NONBONDED TABLE SIZE: 705 POINTS
TCL: Setting parameter alchLambda2 to 0.9500000000000003
Info: NONBONDED TABLE R-SQUARED SPACING: 0.0625
Info: NONBONDED TABLE SIZE: 705 POINTS
TCL: Running for 1500000 steps
ETITLE: TS BOND ANGLE DIHED IMPRP ELECT VDW BOUNDARY MISC KINETIC TOTAL TEMP POTENTIAL TOTALAVG TEMPAVG PRESSURE GPRESSURE VOLUME PRESSAVG GPRESSAVG
ENERGY: 0 1.9110 17.3915 6.2990 0.0000 -10604.0474 1429.2323 0.0000 0.0000 1739.9684 -7409.2452 297.5673 -9149.2136 -7409.2452 297.5673 196.1897 287.4538 29977.0267 196.1897 287.4538
ENERGY: 300000 2.5148 18.3280 5.0401 0.0000 -10586.6636 1417.6817 0.0000 0.0000 1710.7414 -7432.3577 292.5690 -9143.0991 -7402.1009 296.5699 -209.0282 -96.0700 30545.2115 -65.7407 28.3559
ENERGY: 600000 2.5601 20.4525 6.4021 0.0000 -10662.9066 1484.9431 0.0000 0.0000 1794.3863 -7354.1624 306.8738 -9148.5487 -7393.4737 297.6710 804.8149 825.4050 29839.9527 108.7612 171.6835
ENERGY: 900000 1.4997 22.0765 6.6682 0.0000 -10602.6661 1506.8397 0.0000 0.0000 1696.1585 -7369.4234 290.0750 -9065.5819 -7385.9433 297.6641 936.2553 1012.6572 30303.4101 132.2971 204.1268
ENERGY: 1200000 3.9950 17.2996 7.5358 0.0000 -10651.4027 1470.9374 0.0000 0.0000 1731.7901 -7419.8448 296.1687 -9151.6349 -7383.8704 297.9549 318.8949 416.7174 30157.9069 116.7865 185.2889
ENERGY: 1500000 4.3726 14.5970 4.9982 0.0000 -10439.1748 1378.5711 0.0000 0.0000 1754.3939 -7282.2421 300.0344 -9036.6360 -7380.9153 297.7837 -234.8397 -142.2548 30608.5658 114.2496 179.0053
TCL: Running FEP window  20: Lambda1 0.9500000000000003 Lambda2 1.0    [dLambda 0.04999999999999971]
TCL: Setting parameter firsttimestep to 0
TCL: Setting parameter alchLambda to 0.9500000000000003
Info: NONBONDED TABLE R-SQUARED SPACING: 0.0625
Info: NONBONDED TABLE SIZE: 705 POINTS
TCL: Setting parameter alchLambda2 to 1.0
Info: NONBONDED TABLE R-SQUARED SPACING: 0.0625
Info: NONBONDED TABLE SIZE: 705 POINTS
TCL: Running for 1500000 steps
ETITLE: TS BOND ANGLE DIHED IMPRP ELECT VDW BOUNDARY MISC KINETIC TOTAL TEMP POTENTIAL TOTALAVG TEMPAVG PRESSURE GPRESSURE VOLUME PRESSAVG GPRESSAVG
ENERGY: 0 4.3726 14.5970 4.9982 0.0000 -10440.0544 1379.9722 0.0000 0.0000 1753.5272 -7282.5873 299.8862 -9036.1145 -7282.5873 299.8862 -191.4815 -106.0844 30608.5658 -191.4815 -106.0844
ENERGY: 300000 2.7707 15.6685 5.0251 0.0000 -10533.3805 1391.4057 0.0000 0.0000 1765.7637 -7352.7468 301.9788 -9118.5105 -7360.4827 301.2746 13.2801 41.9499 30123.2051 94.8940 150.1028
ENERGY: 600000 0.6435 17.2235 7.6680 0.0000 -10571.6861 1395.1834 0.0000 0.0000 1717.6397 -7433.3280 293.7487 -9150.9677 -7382.2394 300.2497 -370.2913 -271.9312 30377.4705 129.7164 190.0051
ENERGY: 900000 2.2144 12.4915 8.5656 0.0000 -10459.2633 1295.6841 0.0000 0.0000 1742.9233 -7397.3846 298.0727 -9140.3079 -7385.5460 300.3345 -917.9789 -859.3941 30243.6104 -48.2425 8.6102
ENERGY: 1200000 1.8844 18.9448 6.0351 0.0000 -10491.8478 1330.2984 0.0000 0.0000 1699.0816 -7435.6036 290.5749 -9134.6851 -7388.2090 299.8805 -870.1350 -795.4062 30516.2402 -105.1444 -45.8932
ENERGY: 1500000 4.5661 11.1453 6.8777 0.0000 -10608.9673 1462.9775 0.0000 0.0000 1800.5009 -7322.8997 307.9196 -9123.4007 -7381.5389 300.1563 236.4216 327.7383 30238.6475 -104.6563 -35.3083
TCL: Exiting due to exit command.
