Info: SIMULATION PARAMETERS:
Info: TIMESTEP               2
Info: NUMBER OF STEPS        0
Info: STEPS PER CYCLE        10
Info: PERIODIC CELL BASIS 1  32.8408 0 0
Info: PERIODIC CELL BASIS 2  0 28.4408 0
Info: PERIODIC CELL BASIS 3  0 0 32.3543
Info: PERIODIC CELL CENTER   0 0 0
Info: WRAPPING WATERS AROUND PERIODIC BOUNDARIES ON OUTPUT.
Info: WRAPPING ALL CLUSTERS AROUND PERIODIC BOUNDARIES ON OUTPUT.
Info: FIRST LDB TIMESTEP     50
Info: LAST LDB TIMESTEP     -1
Info: HOM BACKGROUND SCALING 1
Info: PME BACKGROUND SCALING 1
Info: MIN ATOMS PER PATCH    40
Info: EMPTY PATCH LOAD       40 ATOMS
Info: VELOCITY FILE          mobley_3802803_equil.vel
Info: CENTER OF MASS MOVING INITIALLY? NO
Info: DIELECTRIC             1
Info: EXCLUDE                SCALED ONE-FOUR
Info: 1-4 ELECTROSTATICS SCALED BY 0.833333
Info: MODIFIED 1-4 VDW PARAMETERS WILL BE USED
Info: DCD FILENAME           mobley_3802803_prod.dcd
Info: DCD FREQUENCY          100000
Info: DCD FIRST STEP         100000
Info: DCD FILE WILL CONTAIN UNIT CELL DATA
Info: XST FILENAME           mobley_3802803_prod.xst
Info: XST FREQUENCY          100000
Info: NO VELOCITY DCD OUTPUT
Info: NO FORCE DCD OUTPUT
Info: OUTPUT FILENAME        mobley_3802803_prod
Info: BINARY OUTPUT FILES WILL BE USED
Info: RESTART FILENAME       mobley_3802803_prod.restart
Info: RESTART FREQUENCY      100000
Info: BINARY RESTART FILES WILL BE USED
Info: CUTOFF                 9
Info: PAIRLIST DISTANCE      11
Info: PAIRLIST SHRINK RATE   0.01
Info: PAIRLIST GROW RATE     0.01
Info: PAIRLIST TRIGGER       0.3
Info: PAIRLISTS PER CYCLE    2
Info: PAIRLISTS ENABLED
Info: MARGIN                 2
Info: HYDROGEN GROUP CUTOFF  2.5
Info: PATCH DIMENSION        15.5
Info: ENERGY OUTPUT STEPS    100000
Info: ENERGY EVALUATION STEPS    100000
Info: OUTPUT ENERGY PRECISION 4
Info: CROSSTERM ENERGY INCLUDED IN DIHEDRAL
Info: TIMING OUTPUT STEPS    1000000
Info: PRESSURE OUTPUT STEPS  100000
Info: ALCHEMICAL FEP ON
Info: FEP CURRENT LAMBDA VALUE     0
Info: FEP COMPARISON LAMBDA VALUE  0.05
Info: FEP INTRA-ALCHEMICAL NON-BONDED INTERACTIONS WILL BE RETAINED
Info: FEP INTRA-ALCHEMICAL BONDED INTERACTIONS WILL BE RETAINED
Info: FEP VDW SHIFTING COEFFICIENT 5
Info: FEP ELEC. ACTIVE FOR ANNIHILATED PARTICLES BETWEEN LAMBDA = 0 AND LAMBDA = 0.5
Info: FEP ELEC. ACTIVE FOR EXNIHILATED PARTICLES BETWEEN LAMBDA = 0.5 AND LAMBDA = 1
Info: FEP VDW ACTIVE FOR ANNIHILATED PARTICLES BETWEEN LAMBDA = 0 AND LAMBDA = 1
Info: FEP VDW ACTIVE FOR EXNIHILATED PARTICLES BETWEEN LAMBDA = 0 AND LAMBDA = 1
Info: FEP BOND ACTIVE FOR ANNIHILATED PARTICLES BETWEEN LAMBDA = 1 AND LAMBDA = 1
Info: FEP BOND ACTIVE FOR EXNIHILATED PARTICLES BETWEEN LAMBDA = 0 AND LAMBDA = 0
Info: LANGEVIN DYNAMICS ACTIVE
Info: LANGEVIN TEMPERATURE   300
Info: LANGEVIN USING BBK INTEGRATOR
Info: LANGEVIN DAMPING COEFFICIENT IS 1 INVERSE PS
Info: LANGEVIN DYNAMICS APPLIED TO HYDROGENS
Info: LANGEVIN PISTON PRESSURE CONTROL ACTIVE
Info:        TARGET PRESSURE IS 1.01325 BAR
Info:     OSCILLATION PERIOD IS 50 FS
Info:             DECAY TIME IS 25 FS
Info:     PISTON TEMPERATURE IS 300 K
Info:       PRESSURE CONTROL IS GROUP-BASED
Info:    INITIAL STRAIN RATE IS -0.000518408 -0.000518408 -0.000518408
Info:       CELL FLUCTUATION IS ISOTROPIC
Info: PARTICLE MESH EWALD (PME) ACTIVE
Info: PME TOLERANCE               1e-06
Info: PME EWALD COEFFICIENT       0.348832
Info: PME INTERPOLATION ORDER     4
Info: PME GRID DIMENSIONS         36 32 36
Info: PME MAXIMUM GRID SPACING    1
Info: PME CALCULATION WILL BE PERFORMED ON GPU
Info: FULL ELECTROSTATIC EVALUATION FREQUENCY      2
Info: USING VERLET I (r-RESPA) MTS SCHEME.
Info: C1 SPLITTING OF LONG RANGE ELECTROSTATICS
Info: PLACING ATOMS IN PATCHES BY HYDROGEN GROUPS
Info: RIGID BONDS TO HYDROGEN : ALL
Info:         ERROR TOLERANCE : 1e-08
Info:          MAX ITERATIONS : 100
Info: RIGID WATER USING SETTLE ALGORITHM
Info: RANDOM NUMBER SEED     1744060318
Info: USE HYDROGEN BONDS?    NO
Info: Using AMBER format force field!
Info: AMBER PARM FILE        mobley_3802803.prmtop
Info: COORDINATE PDB         mobley_3802803.pdb
Info: Exclusions will be read from PARM file!
Info: SCNB (VDW SCALING)     2
Info: USING ARITHMETIC MEAN TO COMBINE L-J SIGMA PARAMETERS
Info: BINARY COORDINATES     mobley_3802803_equil.coor
Info: SUMMARY OF PARAMETERS:
Info: 8 BONDS
Info: 10 ANGLES
Info:   10 HARMONIC
Info:   0 COSINE-BASED
Info: 10 DIHEDRAL
Info: 0 IMPROPER
Info: 0 CROSSTERM
Info: 0 VDW
Info: 36 VDW_PAIRS
Info: 0 NBTHOLE_PAIRS
Info: To read alchdata from file: mobley_3802803.pdb
Info: To read alchflag data from column: 5
Info: STRUCTURE SUMMARY:
Info: 2948 ATOMS
Info: 2947 BONDS
Info: 40 ANGLES
Info: 58 DIHEDRALS
Info: 0 IMPROPERS
Info: 0 CROSSTERMS
Info: 3037 EXCLUSIONS
Info: 2938 RIGID BONDS
Info: ALCH: 0 ATOMS TO DISAPPEAR IN FINAL STATE
Info: ALCH: 23 ATOMS TO APPEAR IN FINAL STATE
Info: 5906 DEGREES OF FREEDOM
Info: 985 HYDROGEN GROUPS
Info: 4 ATOMS IN LARGEST HYDROGEN GROUP
Info: 985 MIGRATION GROUPS
Info: 4 ATOMS IN LARGEST MIGRATION GROUP
Info: TOTAL MASS = 17712.8 amu
Info: TOTAL CHARGE = -0.000200003 e
Info: MASS DENSITY = 0.973326 g/cm^3
Info: ATOM DENSITY = 0.0975528 atoms/A^3
Info: ADDED 0 IMPLICIT EXCLUSIONS
Info: NONBONDED TABLE R-SQUARED SPACING: 0.0625
Info: NONBONDED TABLE SIZE: 705 POINTS
Info: REMOVING COM VELOCITY 0.0202794 -0.0153765 -0.0103973
Info: Use 3D box decompostion in PME FFT.
Info: Updated CUDA force table with 4096 elements.
Info: Updated CUDA LJ table with 8 x 8 elements.
Info: Found 26 unique exclusion lists needing 84 bytes
TCL: Running for 1500000 steps
ETITLE: TS BOND ANGLE DIHED IMPRP ELECT VDW BOUNDARY MISC KINETIC TOTAL TEMP POTENTIAL TOTALAVG TEMPAVG PRESSURE GPRESSURE VOLUME PRESSAVG GPRESSAVG
ENERGY: 0 4.8225 7.1800 4.3288 0.0000 -10676.4117 1531.5831 0.0000 0.0000 1759.8774 -7368.6198 299.9020 -9128.4973 -7368.6198 299.9020 749.5607 824.6527 30219.5291 749.5607 824.6527
ENERGY: 300000 1.5415 12.2403 3.4837 0.0000 -10677.9899 1424.3938 0.0000 0.0000 1762.1141 -7474.2165 300.2832 -9236.3306 -7440.9262 300.7138 -135.3485 -72.6089 30146.5917 257.5895 328.5767
ENERGY: 600000 1.6386 8.6146 4.0962 0.0000 -10733.5094 1414.6852 0.0000 0.0000 1757.4421 -7547.0326 299.4870 -9304.4748 -7468.9107 298.7788 -197.9790 -150.4744 29825.8540 178.9454 255.9115
ENERGY: 900000 4.2277 11.5801 5.0794 0.0000 -10528.2760 1366.7902 0.0000 0.0000 1788.8477 -7351.7509 304.8388 -9140.5986 -7466.5581 298.3822 -711.4221 -610.9064 30170.6165 62.1357 133.2272
ENERGY: 1200000 3.3107 12.6061 3.5541 0.0000 -10766.2615 1475.7699 0.0000 0.0000 1797.4789 -7473.5419 306.3097 -9271.0208 -7453.7401 300.6584 206.4826 292.4599 29807.1885 27.5314 86.9317
ENERGY: 1500000 1.8590 10.1477 3.0667 0.0000 -10714.9211 1500.1302 0.0000 0.0000 1719.3404 -7480.3770 292.9941 -9199.7175 -7449.9302 299.1611 610.1746 726.3305 29758.2252 73.3297 137.9977
TCL: Running FEP window   2: Lambda1 0.05   Lambda2 0.1    [dLambda 0.05  ]
TCL: Setting parameter firsttimestep to 0
TCL: Setting parameter alchLambda to 0.05
Info: NONBONDED TABLE R-SQUARED SPACING: 0.0625
Info: NONBONDED TABLE SIZE: 705 POINTS
TCL: Setting parameter alchLambda2 to 0.1
Info: NONBONDED TABLE R-SQUARED SPACING: 0.0625
Info: NONBONDED TABLE SIZE: 705 POINTS
TCL: Running for 1500000 steps
ETITLE: TS BOND ANGLE DIHED IMPRP ELECT VDW BOUNDARY MISC KINETIC TOTAL TEMP POTENTIAL TOTALAVG TEMPAVG PRESSURE GPRESSURE VOLUME PRESSAVG GPRESSAVG
ENERGY: 0 1.8590 10.1477 3.0667 0.0000 -10714.9221 1502.5433 0.0000 0.0000 1718.4907 -7478.8146 292.8493 -9197.3054 -7478.8146 292.8493 644.5370 730.3970 29758.2252 644.5370 730.3970
ENERGY: 300000 1.6816 12.8063 3.3652 0.0000 -10705.0435 1433.7894 0.0000 0.0000 1709.8475 -7543.5535 291.3764 -9253.4010 -7480.0955 296.3377 -241.6233 -138.1323 29938.9340 584.7121 661.3957
ENERGY: 600000 3.8277 10.4854 4.0884 0.0000 -10585.8391 1412.2522 0.0000 0.0000 1766.7776 -7388.4079 301.0779 -9155.1854 -7447.6768 298.9004 -363.7339 -260.1963 30557.9737 379.6017 459.7542
ENERGY: 900000 2.9202 8.4531 3.3787 0.0000 -10496.1339 1335.6384 0.0000 0.0000 1740.0489 -7405.6945 296.5230 -9145.7435 -7439.9278 297.2866 -724.3604 -655.8725 30470.4070 45.8800 121.7227
ENERGY: 1200000 2.5361 16.6529 4.1900 0.0000 -10818.7847 1541.4892 0.0000 0.0000 1704.7125 -7549.2039 290.5013 -9253.9164 -7442.7555 296.8731 569.6854 745.7788 29792.7504 27.2601 108.2284
ENERGY: 1500000 0.8849 10.1628 4.2549 0.0000 -10583.2084 1397.8186 0.0000 0.0000 1788.5453 -7381.5418 304.7873 -9170.0871 -7440.7670 297.5227 -199.3535 -169.4635 30100.7652 56.4378 127.6207
TCL: Running FEP window   3: Lambda1 0.1    Lambda2 0.15000000000000002 [dLambda 0.05000000000000002]
TCL: Setting parameter firsttimestep to 0
TCL: Setting parameter alchLambda to 0.1
Info: NONBONDED TABLE R-SQUARED SPACING: 0.0625
Info: NONBONDED TABLE SIZE: 705 POINTS
TCL: Setting parameter alchLambda2 to 0.15000000000000002
Info: NONBONDED TABLE R-SQUARED SPACING: 0.0625
Info: NONBONDED TABLE SIZE: 705 POINTS
TCL: Running for 1500000 steps
ETITLE: TS BOND ANGLE DIHED IMPRP ELECT VDW BOUNDARY MISC KINETIC TOTAL TEMP POTENTIAL TOTALAVG TEMPAVG PRESSURE GPRESSURE VOLUME PRESSAVG GPRESSAVG
ENERGY: 0 0.8849 10.1628 4.2549 0.0000 -10583.2093 1397.4172 0.0000 0.0000 1787.6991 -7382.7904 304.6431 -9170.4894 -7382.7904 304.6431 -248.3763 -166.3546 30100.7652 -248.3763 -166.3546
ENERGY: 300000 2.2307 12.1049 5.2743 0.0000 -10645.3487 1436.5402 0.0000 0.0000 1780.2036 -7408.9951 303.3658 -9189.1987 -7419.5665 302.0623 -25.4687 32.1020 30242.1576 -203.0936 -141.0968
ENERGY: 600000 4.8349 13.4076 3.2155 0.0000 -10695.2185 1398.4373 0.0000 0.0000 1795.6810 -7479.6422 306.0033 -9275.3232 -7445.7143 302.4995 -547.5476 -525.9591 30060.0690 -252.4504 -195.4262
ENERGY: 900000 1.7331 10.1535 5.8104 0.0000 -10561.9778 1394.2787 0.0000 0.0000 1765.5464 -7384.4557 300.8681 -9150.0021 -7447.3202 301.3936 -110.7107 -79.0290 30280.6694 -169.5744 -111.0783
ENERGY: 1200000 1.0965 10.1474 2.7593 0.0000 -10604.1927 1415.3070 0.0000 0.0000 1748.7894 -7426.0931 298.0125 -9174.8825 -7449.3259 300.3770 -92.0106 -40.1610 30242.3494 -98.2161 -35.4292
ENERGY: 1500000 2.1025 9.1467 3.1256 0.0000 -10790.2902 1479.6765 0.0000 0.0000 1808.8047 -7487.4341 308.2397 -9296.2388 -7448.7837 301.4585 376.7345 470.1354 29810.5991 -98.4949 -38.1928
TCL: Running FEP window   4: Lambda1 0.15000000000000002 Lambda2 0.2    [dLambda 0.04999999999999999]
TCL: Setting parameter firsttimestep to 0
TCL: Setting parameter alchLambda to 0.15000000000000002
Info: NONBONDED TABLE R-SQUARED SPACING: 0.0625
Info: NONBONDED TABLE SIZE: 705 POINTS
TCL: Setting parameter alchLambda2 to 0.2
Info: NONBONDED TABLE R-SQUARED SPACING: 0.0625
Info: NONBONDED TABLE SIZE: 705 POINTS
TCL: Running for 1500000 steps
ETITLE: TS BOND ANGLE DIHED IMPRP ELECT VDW BOUNDARY MISC KINETIC TOTAL TEMP POTENTIAL TOTALAVG TEMPAVG PRESSURE GPRESSURE VOLUME PRESSAVG GPRESSAVG
ENERGY: 0 2.1025 9.1467 3.1256 0.0000 -10790.2895 1480.8314 0.0000 0.0000 1807.9414 -7487.1420 308.0926 -9295.0833 -7487.1420 308.0926 397.8699 477.5412 29810.5991 397.8699 477.5412
ENERGY: 300000 3.2841 12.0676 2.8947 0.0000 -10686.7716 1455.5043 0.0000 0.0000 1720.0661 -7492.9549 293.1177 -9213.0210 -7455.2559 301.5629 -341.0457 -327.9812 30729.8359 -145.5440 -99.6896
ENERGY: 600000 2.7978 9.2043 7.6391 0.0000 -10690.3534 1430.9370 0.0000 0.0000 1709.1741 -7530.6011 291.2616 -9239.7752 -7454.2338 299.2933 -444.0594 -283.0815 30281.7158 -148.3349 -68.8823
ENERGY: 900000 1.1174 11.0273 4.0162 0.0000 -10602.8806 1453.2767 0.0000 0.0000 1721.2933 -7412.1497 293.3268 -9133.4430 -7446.5890 298.6670 521.2734 503.9546 29797.9725 -125.5667 -62.9297
ENERGY: 1200000 2.3893 10.3758 6.4715 0.0000 -10589.1505 1435.6635 0.0000 0.0000 1733.7936 -7400.4567 295.4570 -9134.2504 -7453.3419 298.6945 157.1702 202.3966 30162.2402 -70.0085 -12.0662
ENERGY: 1500000 2.6087 11.6937 3.9876 0.0000 -10624.8281 1344.1061 0.0000 0.0000 1761.1642 -7501.2678 300.1213 -9262.4320 -7452.7580 299.0716 -835.0039 -773.6992 30099.9428 -112.9067 -52.5498
TCL: Running FEP window   5: Lambda1 0.2    Lambda2 0.25   [dLambda 0.04999999999999999]
TCL: Setting parameter firsttimestep to 0
TCL: Setting parameter alchLambda to 0.2
Info: NONBONDED TABLE R-SQUARED SPACING: 0.0625
Info: NONBONDED TABLE SIZE: 705 POINTS
TCL: Setting parameter alchLambda2 to 0.25
Info: NONBONDED TABLE R-SQUARED SPACING: 0.0625
Info: NONBONDED TABLE SIZE: 705 POINTS
TCL: Running for 1500000 steps
ETITLE: TS BOND ANGLE DIHED IMPRP ELECT VDW BOUNDARY MISC KINETIC TOTAL TEMP POTENTIAL TOTALAVG TEMPAVG PRESSURE GPRESSURE VOLUME PRESSAVG GPRESSAVG
ENERGY: 0 2.6087 11.6937 3.9876 0.0000 -10624.8271 1344.6846 0.0000 0.0000 1760.3004 -7501.5522 299.9741 -9261.8526 -7501.5522 299.9741 -857.5296 -768.2935 30099.9428 -857.5296 -768.2935
ENERGY: 300000 2.9693 12.7229 3.8438 0.0000 -10511.7806 1440.6668 0.0000 0.0000 1771.6354 -7279.9424 301.9057 -9051.5778 -7401.6121 300.6353 283.1878 423.9937 30601.9244 209.3294 266.9508
ENERGY: 600000 4.3600 5.7108 3.6623 0.0000 -10585.2261 1391.5772 0.0000 0.0000 1763.3785 -7416.5374 300.4986 -9179.9158 -7425.0298 301.0523 -403.2781 -385.7495 30526.3612 26.8785 91.7080
ENERGY: 900000 0.7117 10.6037 3.0350 0.0000 -10550.8649 1346.5416 0.0000 0.0000 1794.0050 -7395.9679 305.7177 -9189.9729 -7428.1072 301.4931 -535.1832 -451.1271 30257.1021 -111.7453 -39.2090
ENERGY: 1200000 2.4208 11.3244 3.6466 0.0000 -10697.8444 1512.7074 0.0000 0.0000 1775.1917 -7392.5536 302.5117 -9167.7453 -7424.1015 302.4225 463.6306 518.7309 30454.2897 -195.8331 -132.6108
ENERGY: 1500000 3.2509 15.5173 5.8718 0.0000 -10607.4800 1391.5168 0.0000 0.0000 1802.8899 -7388.4332 307.2318 -9191.3232 -7417.6781 303.0329 -199.1509 -115.1157 29752.6272 -148.1430 -84.7094
TCL: Running FEP window   6: Lambda1 0.25   Lambda2 0.3    [dLambda 0.04999999999999999]
TCL: Setting parameter firsttimestep to 0
TCL: Setting parameter alchLambda to 0.25
Info: NONBONDED TABLE R-SQUARED SPACING: 0.0625
Info: NONBONDED TABLE SIZE: 705 POINTS
TCL: Setting parameter alchLambda2 to 0.3
Info: NONBONDED TABLE R-SQUARED SPACING: 0.0625
Info: NONBONDED TABLE SIZE: 705 POINTS
TCL: Running for 1500000 steps
ETITLE: TS BOND ANGLE DIHED IMPRP ELECT VDW BOUNDARY MISC KINETIC TOTAL TEMP POTENTIAL TOTALAVG TEMPAVG PRESSURE GPRESSURE VOLUME PRESSAVG GPRESSAVG
ENERGY: 0 3.2509 15.5173 5.8718 0.0000 -10607.4827 1392.3861 0.0000 0.0000 1802.0207 -7388.4359 307.0837 -9190.4566 -7388.4359 307.0837 -193.2215 -106.9613 29752.6272 -193.2215 -106.9613
ENERGY: 300000 4.2725 10.8775 2.8767 0.0000 -10595.2998 1434.9890 0.0000 0.0000 1741.0221 -7401.2621 296.6889 -9142.2842 -7411.1809 301.5128 330.6117 361.6128 30069.3045 -111.1839 -54.4695
ENERGY: 600000 2.9589 10.5127 3.9528 0.0000 -10837.9971 1592.6864 0.0000 0.0000 1787.5222 -7440.3642 304.6130 -9227.8863 -7417.3781 301.6856 1531.8782 1601.9225 29693.5341 225.7477 291.2241
ENERGY: 900000 3.4573 12.0926 4.3490 0.0000 -10756.8719 1469.4165 0.0000 0.0000 1789.6862 -7477.8704 304.9817 -9267.5566 -7431.2202 302.8928 173.7880 235.7072 29747.7162 270.8218 333.5499
ENERGY: 1200000 2.8857 9.5815 5.8613 0.0000 -10704.4648 1477.3737 0.0000 0.0000 1731.2057 -7477.5569 295.0160 -9208.7627 -7441.7653 300.9746 235.6289 270.2285 30026.1480 188.7843 257.4805
ENERGY: 1500000 2.6382 12.6611 4.4261 0.0000 -10614.4966 1410.9265 0.0000 0.0000 1787.1235 -7396.7210 304.5450 -9183.8446 -7443.2985 300.1580 -435.6933 -405.8268 31090.5533 101.4482 168.6392
TCL: Running FEP window   7: Lambda1 0.3    Lambda2 0.35   [dLambda 0.04999999999999999]
TCL: Setting parameter firsttimestep to 0
TCL: Setting parameter alchLambda to 0.3
Info: NONBONDED TABLE R-SQUARED SPACING: 0.0625
Info: NONBONDED TABLE SIZE: 705 POINTS
TCL: Setting parameter alchLambda2 to 0.35
Info: NONBONDED TABLE R-SQUARED SPACING: 0.0625
Info: NONBONDED TABLE SIZE: 705 POINTS
TCL: Running for 1500000 steps
ETITLE: TS BOND ANGLE DIHED IMPRP ELECT VDW BOUNDARY MISC KINETIC TOTAL TEMP POTENTIAL TOTALAVG TEMPAVG PRESSURE GPRESSURE VOLUME PRESSAVG GPRESSAVG
ENERGY: 0 2.6382 12.6611 4.4261 0.0000 -10614.4969 1412.2697 0.0000 0.0000 1786.2284 -7396.2733 304.3925 -9182.5017 -7396.2733 304.3925 -479.7498 -393.0107 31090.5533 -479.7498 -393.0107
ENERGY: 300000 1.6048 10.0457 3.7251 0.0000 -10649.4293 1416.4551 0.0000 0.0000 1750.6074 -7466.9912 298.3223 -9217.5986 -7447.8475 303.9959 -221.0856 -163.2971 30140.8505 -234.5653 -185.9199
ENERGY: 600000 1.3728 11.5986 4.8869 0.0000 -10700.4284 1456.0550 0.0000 0.0000 1796.9453 -7429.5697 306.2188 -9226.5151 -7440.0098 302.7528 -16.8053 59.6419 30364.6864 -202.4032 -161.5283
ENERGY: 900000 2.4842 8.6344 6.1786 0.0000 -10710.7204 1526.4371 0.0000 0.0000 1769.7777 -7397.2084 301.5891 -9166.9861 -7431.9623 301.6787 965.5168 988.9816 29992.5772 -71.8047 -26.4525
ENERGY: 1200000 6.4627 10.4366 3.9196 0.0000 -10760.2946 1513.4795 0.0000 0.0000 1801.0883 -7424.9080 306.9248 -9225.9963 -7431.4671 300.3859 395.4285 531.7254 30058.5591 -44.0630 11.4223
ENERGY: 1500000 1.0003 12.5738 3.6520 0.0000 -10582.7624 1430.0327 0.0000 0.0000 1756.0233 -7379.4802 299.2452 -9135.5035 -7433.1191 299.9418 117.1640 221.4309 30357.2575 -32.8117 21.1918
TCL: Running FEP window   8: Lambda1 0.35   Lambda2 0.39999999999999997 [dLambda 0.04999999999999999]
TCL: Setting parameter firsttimestep to 0
TCL: Setting parameter alchLambda to 0.35
Info: NONBONDED TABLE R-SQUARED SPACING: 0.0625
Info: NONBONDED TABLE SIZE: 705 POINTS
TCL: Setting parameter alchLambda2 to 0.39999999999999997
Info: NONBONDED TABLE R-SQUARED SPACING: 0.0625
Info: NONBONDED TABLE SIZE: 705 POINTS
TCL: Running for 1500000 steps
ETITLE: TS BOND ANGLE DIHED IMPRP ELECT VDW BOUNDARY MISC KINETIC TOTAL TEMP POTENTIAL TOTALAVG TEMPAVG PRESSURE GPRESSURE VOLUME PRESSAVG GPRESSAVG
ENERGY: 0 1.0003 12.5738 3.6520 0.0000 -10582.7630 1429.9323 0.0000 0.0000 1755.1320 -7380.4725 299.0933 -9135.6046 -7380.4725 299.0933 159.1299 230.7628 30357.2575 159.1299 230.7628
ENERGY: 300000 4.1456 11.8175 4.3900 0.0000 -10575.9414 1380.7270 0.0000 0.0000 1792.0652 -7382.7959 305.3871 -9174.8611 -7403.4039 301.4418 -240.5320 -208.5771 29959.1100 -318.2605 -269.9722
ENERGY: 600000 1.7374 11.1504 4.8907 0.0000 -10658.9085 1412.2669 0.0000 0.0000 1781.0268 -7447.8362 303.5061 -9228.8630 -7430.7405 302.9625 -393.8553 -270.9102 30307.2524 -313.0580 -265.9877
ENERGY: 900000 1.9809 10.6150 2.9676 0.0000 -10739.8580 1438.7777 0.0000 0.0000 1697.6559 -7587.8609 289.2988 -9285.5168 -7449.2804 300.7899 -146.2729 -138.0264 30201.4071 -291.3111 -241.5012
ENERGY: 1200000 1.6750 11.1076 3.2210 0.0000 -10596.3690 1399.5327 0.0000 0.0000 1786.2676 -7394.5651 304.3992 -9180.8328 -7437.4295 301.8483 -82.9950 -4.1714 30220.0462 -261.4175 -205.5870
ENERGY: 1500000 4.3021 11.7412 4.5220 0.0000 -10650.2967 1444.0655 0.0000 0.0000 1739.5200 -7446.1459 296.4329 -9185.6659 -7446.6694 300.6462 -36.6749 -14.8882 30392.0324 -211.5702 -157.0015
TCL: Running FEP window   9: Lambda1 0.39999999999999997 Lambda2 0.44999999999999996 [dLambda 0.04999999999999999]
TCL: Setting parameter firsttimestep to 0
TCL: Setting parameter alchLambda to 0.39999999999999997
Info: NONBONDED TABLE R-SQUARED SPACING: 0.0625
Info: NONBONDED TABLE SIZE: 705 POINTS
TCL: Setting parameter alchLambda2 to 0.44999999999999996
Info: NONBONDED TABLE R-SQUARED SPACING: 0.0625
Info: NONBONDED TABLE SIZE: 705 POINTS
TCL: Running for 1500000 steps
ETITLE: TS BOND ANGLE DIHED IMPRP ELECT VDW BOUNDARY MISC KINETIC TOTAL TEMP POTENTIAL TOTALAVG TEMPAVG PRESSURE GPRESSURE VOLUME PRESSAVG GPRESSAVG
ENERGY: 0 4.3021 11.7412 4.5220 0.0000 -10650.2969 1443.8229 0.0000 0.0000 1738.6259 -7447.2828 296.2805 -9185.9087 -7447.2828 296.2805 -97.1731 -12.8138 30392.0324 -97.1731 -12.8138
ENERGY: 300000 2.1655 12.8805 2.7411 0.0000 -10615.0737 1340.8330 0.0000 0.0000 1765.8634 -7490.5901 300.9221 -9256.4536 -7417.4660 299.6297 -888.5121 -784.1441 30296.7398 -145.2181 -46.0956
ENERGY: 600000 4.8076 8.8544 3.2744 0.0000 -10499.3358 1337.7679 0.0000 0.0000 1762.8080 -7381.8236 300.4014 -9144.6315 -7421.3088 300.0549 -534.4220 -444.5100 30121.3373 0.1601 77.7487
ENERGY: 900000 2.9818 11.9882 8.0577 0.0000 -10688.0612 1431.4669 0.0000 0.0000 1775.9408 -7457.6259 302.6394 -9233.5667 -7416.7364 301.5504 -260.1363 -163.5030 30268.8860 -83.9744 -2.0261
ENERGY: 1200000 4.6466 7.9014 3.0586 0.0000 -10770.5289 1468.7454 0.0000 0.0000 1785.9782 -7500.1987 304.3498 -9286.1768 -7414.7868 302.7747 -45.0673 72.8548 30060.3839 3.8081 91.1110
ENERGY: 1500000 1.3084 10.9127 6.7417 0.0000 -10515.2036 1352.4196 0.0000 0.0000 1710.6416 -7433.1796 291.5117 -9143.8212 -7418.7215 301.6133 -656.4170 -637.6471 30539.4186 1.0285 74.7781
TCL: Running FEP window  10: Lambda1 0.44999999999999996 Lambda2 0.49999999999999994 [dLambda 0.04999999999999999]
TCL: Setting parameter firsttimestep to 0
TCL: Setting parameter alchLambda to 0.44999999999999996
Info: NONBONDED TABLE R-SQUARED SPACING: 0.0625
Info: NONBONDED TABLE SIZE: 705 POINTS
TCL: Setting parameter alchLambda2 to 0.49999999999999994
Info: NONBONDED TABLE R-SQUARED SPACING: 0.0625
Info: NONBONDED TABLE SIZE: 705 POINTS
TCL: Running for 1500000 steps
ETITLE: TS BOND ANGLE DIHED IMPRP ELECT VDW BOUNDARY MISC KINETIC TOTAL TEMP POTENTIAL TOTALAVG TEMPAVG PRESSURE GPRESSURE VOLUME PRESSAVG GPRESSAVG
ENERGY: 0 1.3084 10.9127 6.7417 0.0000 -10515.2054 1353.4400 0.0000 0.0000 1709.7571 -7433.0455 291.3610 -9142.8026 -7433.0455 291.3610 -702.6862 -621.5866 30539.4186 -702.6862 -621.5866
ENERGY: 300000 5.0927 11.6532 3.8122 0.0000 -10758.1591 1504.2591 0.0000 0.0000 1784.8885 -7448.4534 304.1642 -9233.3419 -7419.0116 298.6588 698.3159 776.4660 29608.9468 58.8930 101.5674
ENERGY: 600000 2.1106 13.9290 3.5741 0.0000 -10492.2203 1349.8103 0.0000 0.0000 1804.5979 -7318.1983 307.5229 -9122.7962 -7414.2256 300.4634 -448.3367 -383.6719 30429.9555 -15.8973 36.5283
ENERGY: 900000 2.4229 9.2850 3.5641 0.0000 -10599.9052 1417.6869 0.0000 0.0000 1763.7976 -7403.1488 300.5700 -9166.9463 -7413.3291 300.7777 98.6076 50.2620 30506.1984 92.6030 133.2389
ENERGY: 1200000 3.0232 14.0159 3.5284 0.0000 -10807.9579 1508.7717 0.0000 0.0000 1699.8118 -7578.8070 289.6662 -9278.6188 -7421.0305 300.8349 228.5977 305.5953 30228.3787 40.7866 86.2933
ENERGY: 1500000 3.4966 8.8429 7.7027 0.0000 -10691.3783 1490.5589 0.0000 0.0000 1748.6224 -7432.1548 297.9840 -9180.7772 -7426.7903 300.6708 258.5689 324.9452 30490.0746 -11.2276 38.2594
TCL: Running FEP window  11: Lambda1 0.49999999999999994 Lambda2 0.5499999999999999 [dLambda 0.04999999999999999]
TCL: Setting parameter firsttimestep to 0
TCL: Setting parameter alchLambda to 0.49999999999999994
Info: NONBONDED TABLE R-SQUARED SPACING: 0.0625
Info: NONBONDED TABLE SIZE: 705 POINTS
TCL: Setting parameter alchLambda2 to 0.5499999999999999
Info: NONBONDED TABLE R-SQUARED SPACING: 0.0625
Info: NONBONDED TABLE SIZE: 705 POINTS
TCL: Running for 1500000 steps
ETITLE: TS BOND ANGLE DIHED IMPRP ELECT VDW BOUNDARY MISC KINETIC TOTAL TEMP POTENTIAL TOTALAVG TEMPAVG PRESSURE GPRESSURE VOLUME PRESSAVG GPRESSAVG
ENERGY: 0 3.4966 8.8429 7.7027 0.0000 -10691.3778 1490.2905 0.0000 0.0000 1747.7239 -7433.3213 297.8309 -9181.0451 -7433.3213 297.8309 247.7288 329.3404 30490.0746 247.7288 329.3404
ENERGY: 300000 2.5033 10.6036 6.3199 0.0000 -10684.7303 1435.4910 0.0000 0.0000 1775.9422 -7453.8704 302.6396 -9229.8126 -7452.7607 299.3318 70.4309 153.5196 30188.7189 14.1827 80.1659
ENERGY: 600000 5.0292 7.8863 5.9832 0.0000 -10708.2301 1506.3683 0.0000 0.0000 1738.3500 -7444.6132 296.2335 -9182.9631 -7433.3354 301.8037 771.1742 769.7007 30192.8331 49.2112 97.1984
ENERGY: 900000 2.9333 10.9592 3.7928 0.0000 -10617.4143 1407.8926 0.0000 0.0000 1739.3722 -7452.4642 296.4077 -9191.8364 -7432.1411 301.0610 -127.6352 -57.1649 30288.2652 50.5244 99.3428
ENERGY: 1200000 6.2304 9.6097 3.8621 0.0000 -10564.5808 1316.5992 0.0000 0.0000 1752.1956 -7476.0838 298.5929 -9228.2794 -7436.4366 301.1241 -1169.6297 -1139.1036 30371.7529 -25.0268 22.2884
ENERGY: 1500000 1.2267 11.3790 4.1143 0.0000 -10680.6445 1388.1753 0.0000 0.0000 1734.1025 -7541.6466 295.5097 -9275.7491 -7441.8813 300.5912 -629.4376 -590.0616 30262.7115 -67.0746 -27.9063
TCL: Running FEP window  12: Lambda1 0.5499999999999999 Lambda2 0.6    [dLambda 0.050000000000000044]
TCL: Setting parameter firsttimestep to 0
TCL: Setting parameter alchLambda to 0.5499999999999999
Info: NONBONDED TABLE R-SQUARED SPACING: 0.0625
Info: NONBONDED TABLE SIZE: 705 POINTS
TCL: Setting parameter alchLambda2 to 0.6
Info: NONBONDED TABLE R-SQUARED SPACING: 0.0625
Info: NONBONDED TABLE SIZE: 705 POINTS
TCL: Running for 1500000 steps
ETITLE: TS BOND ANGLE DIHED IMPRP ELECT VDW BOUNDARY MISC KINETIC TOTAL TEMP POTENTIAL TOTALAVG TEMPAVG PRESSURE GPRESSURE VOLUME PRESSAVG GPRESSAVG
ENERGY: 0 1.2267 11.3790 4.1143 0.0000 -10680.7385 1388.2731 0.0000 0.0000 1733.2402 -7542.5051 295.3627 -9275.7454 -7542.5051 295.3627 -654.8068 -578.7262 30262.7115 -654.8068 -578.7262
ENERGY: 300000 3.3650 6.4858 4.1716 0.0000 -10550.3166 1361.5561 0.0000 0.0000 1786.3053 -7388.4329 304.4056 -9174.7382 -7436.6043 298.5488 -674.9068 -687.3925 30665.4105 -375.5934 -341.9507
ENERGY: 600000 2.8309 7.8033 2.8561 0.0000 -10648.5951 1429.9292 0.0000 0.0000 1773.1931 -7431.9826 302.1711 -9205.1757 -7425.8071 301.3998 115.4587 187.2749 30130.6154 -110.3890 -56.8491
ENERGY: 900000 7.5822 15.6002 2.4020 0.0000 -10550.9102 1428.4841 0.0000 0.0000 1738.8590 -7357.9828 296.3202 -9096.8418 -7420.0320 300.2691 62.5764 118.8572 30590.4785 -94.6930 -38.9180
ENERGY: 1200000 7.3370 14.3903 5.7384 0.0000 -10629.5734 1418.9790 0.0000 0.0000 1721.0352 -7462.0935 293.2829 -9183.1287 -7417.4274 299.8504 24.9876 103.3307 29832.0524 -17.7869 43.1441
ENERGY: 1500000 2.7149 11.6391 9.8112 0.0000 -10636.9355 1441.5588 0.0000 0.0000 1750.1825 -7421.0291 298.2499 -9171.2116 -7420.2653 299.5565 539.6336 540.6372 30063.9535 52.9983 107.7430
TCL: Running FEP window  13: Lambda1 0.6    Lambda2 0.65   [dLambda 0.050000000000000044]
TCL: Setting parameter firsttimestep to 0
TCL: Setting parameter alchLambda to 0.6
Info: NONBONDED TABLE R-SQUARED SPACING: 0.0625
Info: NONBONDED TABLE SIZE: 705 POINTS
TCL: Setting parameter alchLambda2 to 0.65
Info: NONBONDED TABLE R-SQUARED SPACING: 0.0625
Info: NONBONDED TABLE SIZE: 705 POINTS
TCL: Running for 1500000 steps
ETITLE: TS BOND ANGLE DIHED IMPRP ELECT VDW BOUNDARY MISC KINETIC TOTAL TEMP POTENTIAL TOTALAVG TEMPAVG PRESSURE GPRESSURE VOLUME PRESSAVG GPRESSAVG
ENERGY: 0 2.7149 11.6391 9.8112 0.0000 -10637.3394 1441.5654 0.0000 0.0000 1749.3298 -7422.2791 298.1046 -9171.6088 -7422.2791 298.1046 459.0488 549.3402 30063.9535 459.0488 549.3402
ENERGY: 300000 0.8536 10.3417 3.6590 0.0000 -10711.4119 1410.6579 0.0000 0.0000 1761.4129 -7524.4868 300.1637 -9285.8997 -7437.5097 299.2746 -447.3373 -379.9221 30353.0061 -245.7534 -166.3341
ENERGY: 600000 1.0648 16.2199 2.8727 0.0000 -10653.6672 1395.4273 0.0000 0.0000 1760.4651 -7477.6174 300.0021 -9238.0825 -7458.7170 300.1817 149.5030 167.4238 29733.2744 -61.1398 5.6522
ENERGY: 900000 2.2180 8.6747 3.9562 0.0000 -10622.7484 1391.2253 0.0000 0.0000 1744.7335 -7471.9406 297.3213 -9216.6742 -7452.9465 300.8072 -273.1589 -184.6812 30273.5115 -38.3011 30.2042
ENERGY: 1200000 5.9539 7.0233 5.6910 0.0000 -10591.3969 1441.6194 0.0000 0.0000 1795.6833 -7335.4261 306.0037 -9131.1094 -7449.8083 300.1038 115.9029 199.8235 30629.3022 31.7552 99.8072
ENERGY: 1500000 3.6447 11.9786 3.9348 0.0000 -10492.2281 1319.4558 0.0000 0.0000 1697.0658 -7456.1484 289.1982 -9153.2142 -7445.1192 299.4392 -809.2234 -705.9986 30398.3974 -34.5781 38.4139
TCL: Running FEP window  14: Lambda1 0.65   Lambda2 0.7000000000000001 [dLambda 0.050000000000000044]
TCL: Setting parameter firsttimestep to 0
TCL: Setting parameter alchLambda to 0.65
Info: NONBONDED TABLE R-SQUARED SPACING: 0.0625
Info: NONBONDED TABLE SIZE: 705 POINTS
TCL: Setting parameter alchLambda2 to 0.7000000000000001
Info: NONBONDED TABLE R-SQUARED SPACING: 0.0625
Info: NONBONDED TABLE SIZE: 705 POINTS
TCL: Running for 1500000 steps
ETITLE: TS BOND ANGLE DIHED IMPRP ELECT VDW BOUNDARY MISC KINETIC TOTAL TEMP POTENTIAL TOTALAVG TEMPAVG PRESSURE GPRESSURE VOLUME PRESSAVG GPRESSAVG
ENERGY: 0 3.6447 11.9786 3.9348 0.0000 -10492.0576 1319.0375 0.0000 0.0000 1696.1608 -7457.3012 289.0440 -9153.4620 -7457.3012 289.0440 -776.8521 -701.4579 30398.3974 -776.8521 -701.4579
ENERGY: 300000 3.6281 9.3910 5.0976 0.0000 -10646.6434 1402.0949 0.0000 0.0000 1760.5273 -7465.9046 300.0127 -9226.4318 -7471.5868 296.1682 -445.7622 -348.8759 30592.3915 -196.5209 -112.1029
ENERGY: 600000 1.2704 12.2999 4.3858 0.0000 -10648.4159 1488.4375 0.0000 0.0000 1779.1135 -7362.9088 303.1800 -9142.0223 -7429.1979 299.9684 846.4590 896.6540 29934.9271 -86.8856 -10.7735
ENERGY: 900000 4.1326 10.5744 3.4125 0.0000 -10804.8785 1522.2960 0.0000 0.0000 1755.9078 -7508.5551 299.2255 -9264.4629 -7424.9872 300.1314 580.6802 664.3465 30036.1146 -20.0590 52.7489
ENERGY: 1200000 1.6189 13.3955 4.8835 0.0000 -10776.8715 1486.2612 0.0000 0.0000 1739.8439 -7530.8685 296.4881 -9270.7124 -7435.1292 299.3538 436.5246 490.9067 29740.5590 -11.1522 58.4530
ENERGY: 1500000 1.1987 11.3135 3.5991 0.0000 -10697.0055 1474.4957 0.0000 0.0000 1716.2771 -7490.1214 292.4720 -9206.3985 -7437.6350 298.7024 223.0303 265.4069 30456.2756 51.8865 113.5052
TCL: Running FEP window  15: Lambda1 0.7000000000000001 Lambda2 0.7500000000000001 [dLambda 0.050000000000000044]
TCL: Setting parameter firsttimestep to 0
TCL: Setting parameter alchLambda to 0.7000000000000001
Info: NONBONDED TABLE R-SQUARED SPACING: 0.0625
Info: NONBONDED TABLE SIZE: 705 POINTS
TCL: Setting parameter alchLambda2 to 0.7500000000000001
Info: NONBONDED TABLE R-SQUARED SPACING: 0.0625
Info: NONBONDED TABLE SIZE: 705 POINTS
TCL: Running for 1500000 steps
ETITLE: TS BOND ANGLE DIHED IMPRP ELECT VDW BOUNDARY MISC KINETIC TOTAL TEMP POTENTIAL TOTALAVG TEMPAVG PRESSURE GPRESSURE VOLUME PRESSAVG GPRESSAVG
ENERGY: 0 1.1987 11.3135 3.5991 0.0000 -10697.2724 1474.7654 0.0000 0.0000 1715.4509 -7490.9447 292.3312 -9206.3956 -7490.9447 292.3312 202.5694 280.5921 30456.2756 202.5694 280.5921
ENERGY: 300000 2.1891 12.4677 3.8480 0.0000 -10409.4341 1290.0535 0.0000 0.0000 1747.9865 -7352.8893 297.8757 -9100.8757 -7431.9167 297.6885 -994.9524 -919.4076 30742.3105 -175.3371 -87.1953
ENERGY: 600000 2.0225 12.0460 3.4043 0.0000 -10822.8358 1556.9577 0.0000 0.0000 1746.1234 -7502.2819 297.5582 -9248.4053 -7455.0045 298.7787 1268.0023 1283.3946 29858.6785 86.7157 162.6544
ENERGY: 900000 4.1199 10.7618 4.9136 0.0000 -10590.8051 1368.9331 0.0000 0.0000 1708.4394 -7493.6373 291.1364 -9202.0767 -7460.1366 298.0913 -678.5459 -609.4579 30605.4353 -113.6952 -49.6189
ENERGY: 1200000 3.4720 9.1459 4.1903 0.0000 -10677.3455 1437.2198 0.0000 0.0000 1679.1799 -7544.1375 286.1503 -9223.3174 -7454.6775 297.7015 -98.4027 -9.3775 30048.1199 -223.5745 -159.5791
ENERGY: 1500000 1.4450 11.3907 3.1064 0.0000 -10479.8309 1297.2797 0.0000 0.0000 1772.1953 -7394.4138 302.0011 -9166.6091 -7443.3575 297.9122 -888.7876 -826.7789 30159.4804 -244.4490 -178.4167
TCL: Running FEP window  16: Lambda1 0.7500000000000001 Lambda2 0.8000000000000002 [dLambda 0.050000000000000044]
TCL: Setting parameter firsttimestep to 0
TCL: Setting parameter alchLambda to 0.7500000000000001
Info: NONBONDED TABLE R-SQUARED SPACING: 0.0625
Info: NONBONDED TABLE SIZE: 705 POINTS
TCL: Setting parameter alchLambda2 to 0.8000000000000002
Info: NONBONDED TABLE R-SQUARED SPACING: 0.0625
Info: NONBONDED TABLE SIZE: 705 POINTS
TCL: Running for 1500000 steps
ETITLE: TS BOND ANGLE DIHED IMPRP ELECT VDW BOUNDARY MISC KINETIC TOTAL TEMP POTENTIAL TOTALAVG TEMPAVG PRESSURE GPRESSURE VOLUME PRESSAVG GPRESSAVG
ENERGY: 0 1.4450 11.3907 3.1064 0.0000 -10480.0836 1297.1023 0.0000 0.0000 1771.3091 -7395.7302 301.8501 -9167.0393 -7395.7302 301.8501 -896.9926 -815.3292 30159.4804 -896.9926 -815.3292
ENERGY: 300000 3.4017 8.1043 3.1870 0.0000 -10560.2696 1431.8557 0.0000 0.0000 1800.6093 -7313.1116 306.8431 -9113.7209 -7393.4350 305.8211 210.4655 321.8399 30234.8350 -243.3713 -150.7310
ENERGY: 600000 3.0849 9.1032 3.3869 0.0000 -10628.9382 1387.5633 0.0000 0.0000 1723.1665 -7502.6334 293.6461 -9225.7999 -7415.4414 303.0283 -610.3769 -516.9056 30504.1939 -351.2539 -278.8857
ENERGY: 900000 2.9564 12.5413 4.3428 0.0000 -10812.2052 1512.0753 0.0000 0.0000 1797.6121 -7482.6773 306.3324 -9280.2893 -7437.8666 302.3919 456.6582 564.2217 29637.7419 -180.2837 -111.4248
ENERGY: 1200000 6.4672 7.9486 2.7058 0.0000 -10642.3494 1476.6386 0.0000 0.0000 1721.1985 -7427.3908 293.3107 -9148.5892 -7444.1012 300.7214 453.8048 500.5579 30332.4169 -124.9657 -58.3706
ENERGY: 1500000 5.5494 12.9110 5.4942 0.0000 -10584.2217 1387.9977 0.0000 0.0000 1792.8066 -7379.4628 305.5135 -9172.2693 -7443.3249 301.1133 -330.6111 -294.0650 30514.6486 -102.5278 -37.9664
TCL: Running FEP window  17: Lambda1 0.8000000000000002 Lambda2 0.8500000000000002 [dLambda 0.050000000000000044]
TCL: Setting parameter firsttimestep to 0
TCL: Setting parameter alchLambda to 0.8000000000000002
Info: NONBONDED TABLE R-SQUARED SPACING: 0.0625
Info: NONBONDED TABLE SIZE: 705 POINTS
TCL: Setting parameter alchLambda2 to 0.8500000000000002
Info: NONBONDED TABLE R-SQUARED SPACING: 0.0625
Info: NONBONDED TABLE SIZE: 705 POINTS
TCL: Running for 1500000 steps
ETITLE: TS BOND ANGLE DIHED IMPRP ELECT VDW BOUNDARY MISC KINETIC TOTAL TEMP POTENTIAL TOTALAVG TEMPAVG PRESSURE GPRESSURE VOLUME PRESSAVG GPRESSAVG
ENERGY: 0 5.5494 12.9110 5.4942 0.0000 -10584.7664 1387.7013 0.0000 0.0000 1791.9366 -7381.1739 305.3652 -9173.1105 -7381.1739 305.3652 -359.1684 -284.8812 30514.6486 -359.1684 -284.8812
ENERGY: 300000 5.2530 11.0429 3.7945 0.0000 -10556.0675 1370.5559 0.0000 0.0000 1697.7446 -7467.6766 289.3139 -9165.4212 -7410.4884 301.1844 -135.8449 -62.2261 29698.6420 -484.0892 -401.1217
ENERGY: 600000 2.1383 9.4313 4.3370 0.0000 -10783.5332 1511.1956 0.0000 0.0000 1822.9079 -7433.5230 310.6431 -9256.4309 -7422.3497 302.5106 597.8113 640.7079 30351.3168 -89.5503 -18.9049
ENERGY: 900000 3.1989 9.5263 3.9326 0.0000 -10727.9341 1502.9789 0.0000 0.0000 1713.7436 -7494.5538 292.0403 -9208.2974 -7445.5839 300.1718 881.8465 908.8855 29998.3380 35.4341 90.1254
ENERGY: 1200000 3.0304 11.8069 3.4334 0.0000 -10576.0005 1363.9767 0.0000 0.0000 1791.5506 -7402.2025 305.2994 -9193.7531 -7443.8540 300.2590 -593.9537 -530.0091 30613.2000 -118.3967 -62.9110
ENERGY: 1500000 3.5720 10.3054 3.8611 0.0000 -10750.5839 1489.0307 0.0000 0.0000 1783.1916 -7460.6232 303.8750 -9243.8147 -7444.3195 300.3655 756.6611 825.1860 29782.9539 -49.3397 3.2344
TCL: Running FEP window  18: Lambda1 0.8500000000000002 Lambda2 0.9000000000000002 [dLambda 0.050000000000000044]
TCL: Setting parameter firsttimestep to 0
TCL: Setting parameter alchLambda to 0.8500000000000002
Info: NONBONDED TABLE R-SQUARED SPACING: 0.0625
Info: NONBONDED TABLE SIZE: 705 POINTS
TCL: Setting parameter alchLambda2 to 0.9000000000000002
Info: NONBONDED TABLE R-SQUARED SPACING: 0.0625
Info: NONBONDED TABLE SIZE: 705 POINTS
TCL: Running for 1500000 steps
ETITLE: TS BOND ANGLE DIHED IMPRP ELECT VDW BOUNDARY MISC KINETIC TOTAL TEMP POTENTIAL TOTALAVG TEMPAVG PRESSURE GPRESSURE VOLUME PRESSAVG GPRESSAVG
ENERGY: 0 3.5721 10.3054 3.8611 0.0000 -10750.9730 1489.0380 0.0000 0.0000 1782.3622 -7461.8342 303.7337 -9244.1964 -7461.8342 303.7337 747.5642 841.1966 29782.9539 747.5642 841.1966
ENERGY: 300000 5.2353 9.2589 4.5954 0.0000 -10586.7223 1346.9610 0.0000 0.0000 1756.7536 -7463.9181 299.3697 -9220.6717 -7481.0951 296.9881 -718.4973 -712.9992 30442.5804 -196.7040 -155.4047
ENERGY: 600000 3.9686 11.7355 5.2422 0.0000 -10659.9537 1500.0957 0.0000 0.0000 1780.9528 -7357.9591 303.4935 -9138.9118 -7454.5701 299.9554 903.4506 916.4175 30117.6747 -243.3513 -187.2414
ENERGY: 900000 2.3776 9.4292 3.9946 0.0000 -10617.7679 1440.5866 0.0000 0.0000 1737.6330 -7423.7470 296.1113 -9161.3800 -7459.3097 299.4120 273.6513 343.4725 30491.6220 -209.4600 -152.3006
ENERGY: 1200000 1.7006 11.2887 3.3081 0.0000 -10623.2637 1397.4442 0.0000 0.0000 1775.7727 -7433.7495 302.6107 -9209.5222 -7446.2404 300.0472 -375.2863 -291.2709 30800.7017 -231.6417 -169.6236
ENERGY: 1500000 1.9518 5.8569 3.5476 0.0000 -10601.5198 1444.7111 0.0000 0.0000 1747.7445 -7397.7079 297.8344 -9145.4523 -7443.2274 300.3289 502.8581 553.7442 29901.3145 -135.7763 -76.8561
TCL: Running FEP window  19: Lambda1 0.9000000000000002 Lambda2 0.9500000000000003 [dLambda 0.050000000000000044]
TCL: Setting parameter firsttimestep to 0
TCL: Setting parameter alchLambda to 0.9000000000000002
Info: NONBONDED TABLE R-SQUARED SPACING: 0.0625
Info: NONBONDED TABLE SIZE: 705 POINTS
TCL: Setting parameter alchLambda2 to 0.9500000000000003
Info: NONBONDED TABLE R-SQUARED SPACING: 0.0625
Info: NONBONDED TABLE SIZE: 705 POINTS
TCL: Running for 1500000 steps
ETITLE: TS BOND ANGLE DIHED IMPRP ELECT VDW BOUNDARY MISC KINETIC TOTAL TEMP POTENTIAL TOTALAVG TEMPAVG PRESSURE GPRESSURE VOLUME PRESSAVG GPRESSAVG
ENERGY: 0 1.9518 5.8569 3.5476 0.0000 -10602.0141 1444.5964 0.0000 0.0000 1746.8539 -7399.2075 297.6826 -9146.0614 -7399.2075 297.6826 482.7964 570.2204 29901.3145 482.7964 570.2204
ENERGY: 300000 2.1294 18.8911 7.3221 0.0000 -10718.3992 1525.7666 0.0000 0.0000 1791.9089 -7372.3811 305.3605 -9164.2900 -7402.7804 299.1257 1176.7407 1191.3074 29717.0427 403.1593 461.7198
ENERGY: 600000 4.9596 9.2056 3.9603 0.0000 -10572.0899 1370.1020 0.0000 0.0000 1793.2337 -7390.6286 305.5863 -9183.8623 -7397.7331 301.9686 -388.7391 -321.5139 30238.9547 91.4519 142.7359
ENERGY: 900000 5.0717 9.2489 4.6784 0.0000 -10623.2231 1393.5658 0.0000 0.0000 1767.8373 -7442.8210 301.2584 -9210.6582 -7418.5444 301.1756 -442.5314 -416.0380 30394.0037 37.7288 87.3027
ENERGY: 1200000 5.7347 9.0256 4.1957 0.0000 -10725.1921 1437.8467 0.0000 0.0000 1690.0474 -7578.3419 288.0022 -9268.3893 -7430.0187 300.3243 -424.9760 -338.1598 30369.1646 36.9461 92.9658
ENERGY: 1500000 1.5916 7.9115 5.8752 0.0000 -10616.4017 1436.9592 0.0000 0.0000 1753.8933 -7410.1707 298.8822 -9164.0641 -7433.4337 300.1361 127.6745 192.7242 30595.8185 114.2720 165.8112
TCL: Running FEP window  20: Lambda1 0.9500000000000003 Lambda2 1.0    [dLambda 0.04999999999999971]
TCL: Setting parameter firsttimestep to 0
TCL: Setting parameter alchLambda to 0.9500000000000003
Info: NONBONDED TABLE R-SQUARED SPACING: 0.0625
Info: NONBONDED TABLE SIZE: 705 POINTS
TCL: Setting parameter alchLambda2 to 1.0
Info: NONBONDED TABLE R-SQUARED SPACING: 0.0625
Info: NONBONDED TABLE SIZE: 705 POINTS
TCL: Running for 1500000 steps
ETITLE: TS BOND ANGLE DIHED IMPRP ELECT VDW BOUNDARY MISC KINETIC TOTAL TEMP POTENTIAL TOTALAVG TEMPAVG PRESSURE GPRESSURE VOLUME PRESSAVG GPRESSAVG
ENERGY: 0 1.5916 7.9115 5.8752 0.0000 -10617.0615 1436.7555 0.0000 0.0000 1753.0515 -7411.8762 298.7388 -9164.9277 -7411.8762 298.7388 124.3343 207.3489 30595.8185 124.3343 207.3489
ENERGY: 300000 2.5477 13.8828 4.1679 0.0000 -10671.4585 1497.0581 0.0000 0.0000 1754.1636 -7399.6384 298.9283 -9153.8020 -7470.1379 297.6862 459.8131 457.3517 30800.3178 -38.9652 20.1146
ENERGY: 600000 1.6969 9.4972 2.7816 0.0000 -10694.9788 1443.3429 0.0000 0.0000 1771.9923 -7465.6679 301.9665 -9237.6603 -7467.7240 299.5966 182.2386 186.3243 30274.7897 -4.8521 44.8610
ENERGY: 900000 3.0448 9.0799 2.6310 0.0000 -10639.0439 1368.2331 0.0000 0.0000 1725.6751 -7530.3799 294.0736 -9256.0550 -7464.6049 298.3959 -682.2695 -599.9017 30131.9706 -83.1299 -34.7016
ENERGY: 1200000 3.0515 6.2538 2.5389 0.0000 -10701.7000 1457.9875 0.0000 0.0000 1735.6164 -7496.2519 295.7677 -9231.8684 -7461.8858 298.6139 101.0310 173.4314 30412.2176 -69.0959 -21.7373
ENERGY: 1500000 2.4569 11.1264 4.3004 0.0000 -10856.3986 1561.9649 0.0000 0.0000 1759.5255 -7517.0245 299.8420 -9276.5500 -7464.5910 298.6000 877.9823 960.4211 30120.1377 -102.0232 -45.5955
TCL: Exiting due to exit command.
