Info: SIMULATION PARAMETERS:
Info: TIMESTEP               2
Info: NUMBER OF STEPS        0
Info: STEPS PER CYCLE        10
Info: PERIODIC CELL BASIS 1  34.0962 0 0
Info: PERIODIC CELL BASIS 2  0 31.0692 0
Info: PERIODIC CELL BASIS 3  0 0 29.031
Info: PERIODIC CELL CENTER   0 0 0
Info: WRAPPING WATERS AROUND PERIODIC BOUNDARIES ON OUTPUT.
Info: WRAPPING ALL CLUSTERS AROUND PERIODIC BOUNDARIES ON OUTPUT.
Info: FIRST LDB TIMESTEP     50
Info: LAST LDB TIMESTEP     -1
Info: HOM BACKGROUND SCALING 1
Info: PME BACKGROUND SCALING 1
Info: MIN ATOMS PER PATCH    40
Info: EMPTY PATCH LOAD       40 ATOMS
Info: VELOCITY FILE          mobley_2518989_equil.vel
Info: CENTER OF MASS MOVING INITIALLY? NO
Info: DIELECTRIC             1
Info: EXCLUDE                SCALED ONE-FOUR
Info: 1-4 ELECTROSTATICS SCALED BY 0.833333
Info: MODIFIED 1-4 VDW PARAMETERS WILL BE USED
Info: DCD FILENAME           mobley_2518989_prod.dcd
Info: DCD FREQUENCY          100000
Info: DCD FIRST STEP         100000
Info: DCD FILE WILL CONTAIN UNIT CELL DATA
Info: XST FILENAME           mobley_2518989_prod.xst
Info: XST FREQUENCY          100000
Info: NO VELOCITY DCD OUTPUT
Info: NO FORCE DCD OUTPUT
Info: OUTPUT FILENAME        mobley_2518989_prod
Info: BINARY OUTPUT FILES WILL BE USED
Info: RESTART FILENAME       mobley_2518989_prod.restart
Info: RESTART FREQUENCY      100000
Info: BINARY RESTART FILES WILL BE USED
Info: CUTOFF                 9
Info: PAIRLIST DISTANCE      11
Info: PAIRLIST SHRINK RATE   0.01
Info: PAIRLIST GROW RATE     0.01
Info: PAIRLIST TRIGGER       0.3
Info: PAIRLISTS PER CYCLE    2
Info: PAIRLISTS ENABLED
Info: MARGIN                 2
Info: HYDROGEN GROUP CUTOFF  2.5
Info: PATCH DIMENSION        15.5
Info: ENERGY OUTPUT STEPS    100000
Info: ENERGY EVALUATION STEPS    100000
Info: OUTPUT ENERGY PRECISION 4
Info: CROSSTERM ENERGY INCLUDED IN DIHEDRAL
Info: TIMING OUTPUT STEPS    1000000
Info: PRESSURE OUTPUT STEPS  100000
Info: ALCHEMICAL FEP ON
Info: FEP CURRENT LAMBDA VALUE     0
Info: FEP COMPARISON LAMBDA VALUE  0.05
Info: FEP INTRA-ALCHEMICAL NON-BONDED INTERACTIONS WILL BE RETAINED
Info: FEP INTRA-ALCHEMICAL BONDED INTERACTIONS WILL BE RETAINED
Info: FEP VDW SHIFTING COEFFICIENT 5
Info: FEP ELEC. ACTIVE FOR ANNIHILATED PARTICLES BETWEEN LAMBDA = 0 AND LAMBDA = 0.5
Info: FEP ELEC. ACTIVE FOR EXNIHILATED PARTICLES BETWEEN LAMBDA = 0.5 AND LAMBDA = 1
Info: FEP VDW ACTIVE FOR ANNIHILATED PARTICLES BETWEEN LAMBDA = 0 AND LAMBDA = 1
Info: FEP VDW ACTIVE FOR EXNIHILATED PARTICLES BETWEEN LAMBDA = 0 AND LAMBDA = 1
Info: FEP BOND ACTIVE FOR ANNIHILATED PARTICLES BETWEEN LAMBDA = 1 AND LAMBDA = 1
Info: FEP BOND ACTIVE FOR EXNIHILATED PARTICLES BETWEEN LAMBDA = 0 AND LAMBDA = 0
Info: LANGEVIN DYNAMICS ACTIVE
Info: LANGEVIN TEMPERATURE   300
Info: LANGEVIN USING BBK INTEGRATOR
Info: LANGEVIN DAMPING COEFFICIENT IS 1 INVERSE PS
Info: LANGEVIN DYNAMICS APPLIED TO HYDROGENS
Info: LANGEVIN PISTON PRESSURE CONTROL ACTIVE
Info:        TARGET PRESSURE IS 1.01325 BAR
Info:     OSCILLATION PERIOD IS 50 FS
Info:             DECAY TIME IS 25 FS
Info:     PISTON TEMPERATURE IS 300 K
Info:       PRESSURE CONTROL IS GROUP-BASED
Info:    INITIAL STRAIN RATE IS 0.000700684 0.000700684 0.000700684
Info:       CELL FLUCTUATION IS ISOTROPIC
Info: PARTICLE MESH EWALD (PME) ACTIVE
Info: PME TOLERANCE               1e-06
Info: PME EWALD COEFFICIENT       0.348832
Info: PME INTERPOLATION ORDER     4
Info: PME GRID DIMENSIONS         36 32 32
Info: PME MAXIMUM GRID SPACING    1
Info: PME CALCULATION WILL BE PERFORMED ON GPU
Info: FULL ELECTROSTATIC EVALUATION FREQUENCY      2
Info: USING VERLET I (r-RESPA) MTS SCHEME.
Info: C1 SPLITTING OF LONG RANGE ELECTROSTATICS
Info: PLACING ATOMS IN PATCHES BY HYDROGEN GROUPS
Info: RIGID BONDS TO HYDROGEN : ALL
Info:         ERROR TOLERANCE : 1e-08
Info:          MAX ITERATIONS : 100
Info: RIGID WATER USING SETTLE ALGORITHM
Info: RANDOM NUMBER SEED     1744096778
Info: USE HYDROGEN BONDS?    NO
Info: Using AMBER format force field!
Info: AMBER PARM FILE        mobley_2518989.prmtop
Info: COORDINATE PDB         mobley_2518989.pdb
Info: Exclusions will be read from PARM file!
Info: SCNB (VDW SCALING)     2
Info: USING ARITHMETIC MEAN TO COMBINE L-J SIGMA PARAMETERS
Info: BINARY COORDINATES     mobley_2518989_equil.coor
Info: SUMMARY OF PARAMETERS:
Info: 18 BONDS
Info: 28 ANGLES
Info:   28 HARMONIC
Info:   0 COSINE-BASED
Info: 19 DIHEDRAL
Info: 0 IMPROPER
Info: 0 CROSSTERM
Info: 0 VDW
Info: 105 VDW_PAIRS
Info: 0 NBTHOLE_PAIRS
Info: To read alchdata from file: mobley_2518989.pdb
Info: To read alchflag data from column: 5
Info: STRUCTURE SUMMARY:
Info: 2968 ATOMS
Info: 2969 BONDS
Info: 72 ANGLES
Info: 116 DIHEDRALS
Info: 0 IMPROPERS
Info: 0 CROSSTERMS
Info: 3124 EXCLUSIONS
Info: 2945 RIGID BONDS
Info: ALCH: 0 ATOMS TO DISAPPEAR IN FINAL STATE
Info: ALCH: 40 ATOMS TO APPEAR IN FINAL STATE
Info: 5959 DEGREES OF FREEDOM
Info: 999 HYDROGEN GROUPS
Info: 4 ATOMS IN LARGEST HYDROGEN GROUP
Info: 999 MIGRATION GROUPS
Info: 4 ATOMS IN LARGEST MIGRATION GROUP
Info: TOTAL MASS = 17977.4 amu
Info: TOTAL CHARGE = 0.000200024 e
Info: MASS DENSITY = 0.970706 g/cm^3
Info: ATOM DENSITY = 0.0965083 atoms/A^3
Info: ADDED 0 IMPLICIT EXCLUSIONS
Info: NONBONDED TABLE R-SQUARED SPACING: 0.0625
Info: NONBONDED TABLE SIZE: 705 POINTS
Info: REDUCING NUMBER OF PATCHES TO IMPROVE LOAD BALANCE
Info: REMOVING COM VELOCITY -0.150628 -0.228273 0.0602376
Info: Use 3D box decompostion in PME FFT.
Info: Updated CUDA force table with 4096 elements.
Info: Updated CUDA LJ table with 14 x 14 elements.
Info: Found 39 unique exclusion lists needing 188 bytes
TCL: Running for 1500000 steps
ETITLE: TS BOND ANGLE DIHED IMPRP ELECT VDW BOUNDARY MISC KINETIC TOTAL TEMP POTENTIAL TOTALAVG TEMPAVG PRESSURE GPRESSURE VOLUME PRESSAVG GPRESSAVG
ENERGY: 0 9.6920 35.1221 30.2266 0.0000 -10821.5620 1463.4060 0.0000 0.0000 1791.6585 -7491.4568 302.6023 -9283.1153 -7491.4568 302.6023 216.3762 294.5855 30753.8369 216.3762 294.5855
ENERGY: 300000 10.0966 40.1046 35.3771 0.0000 -10938.3430 1527.6283 0.0000 0.0000 1784.1954 -7540.9409 301.3418 -9325.1364 -7528.1433 300.4520 609.1580 670.4282 29940.8182 39.4419 92.9844
ENERGY: 600000 6.1173 31.9744 28.5231 0.0000 -10687.1067 1369.4541 0.0000 0.0000 1791.9690 -7459.0687 302.6547 -9251.0377 -7517.9032 301.4648 -533.1159 -433.7684 30504.0051 -38.4929 25.7991
ENERGY: 900000 5.8628 34.1534 32.3049 0.0000 -10761.3201 1485.3727 0.0000 0.0000 1720.9644 -7482.6619 290.6624 -9203.6263 -7515.6416 300.4057 582.1581 621.9157 30238.5761 -53.0106 13.1745
ENERGY: 1200000 9.1849 32.0220 33.0199 0.0000 -10872.4633 1470.8389 0.0000 0.0000 1746.4527 -7580.9448 294.9673 -9327.3975 -7519.4362 300.1776 289.4667 399.1161 30185.6559 -84.7189 -18.8847
ENERGY: 1500000 7.3487 33.7476 31.3448 0.0000 -10723.9410 1429.7027 0.0000 0.0000 1785.4499 -7436.3473 301.5537 -9221.7971 -7517.9376 299.6743 -336.0393 -291.5201 31018.9194 -51.6435 11.7034
TCL: Running FEP window   2: Lambda1 0.05   Lambda2 0.1    [dLambda 0.05  ]
TCL: Setting parameter firsttimestep to 0
TCL: Setting parameter alchLambda to 0.05
Info: NONBONDED TABLE R-SQUARED SPACING: 0.0625
Info: NONBONDED TABLE SIZE: 705 POINTS
TCL: Setting parameter alchLambda2 to 0.1
Info: NONBONDED TABLE R-SQUARED SPACING: 0.0625
Info: NONBONDED TABLE SIZE: 705 POINTS
TCL: Running for 1500000 steps
ETITLE: TS BOND ANGLE DIHED IMPRP ELECT VDW BOUNDARY MISC KINETIC TOTAL TEMP POTENTIAL TOTALAVG TEMPAVG PRESSURE GPRESSURE VOLUME PRESSAVG GPRESSAVG
ENERGY: 0 7.3487 33.7476 31.3448 0.0000 -10723.9395 1435.7840 0.0000 0.0000 1784.5339 -7431.1805 301.3990 -9215.7144 -7431.1805 301.3990 -364.9951 -273.8152 31018.9194 -364.9951 -273.8152
ENERGY: 300000 8.7706 38.6240 31.7099 0.0000 -10799.7769 1404.7853 0.0000 0.0000 1775.9600 -7539.9271 299.9509 -9315.8871 -7495.5849 300.1440 -392.8546 -359.3740 30129.3955 -249.0499 -183.0720
ENERGY: 600000 10.8825 41.1550 27.2225 0.0000 -10930.0230 1454.3198 0.0000 0.0000 1807.6875 -7588.7556 305.3095 -9396.4431 -7511.8134 300.9535 -59.3601 -48.9334 29964.0762 33.2865 90.7332
ENERGY: 900000 12.3029 37.3397 34.0800 0.0000 -10971.0319 1505.6901 0.0000 0.0000 1751.7330 -7629.8863 295.8591 -9381.6194 -7526.1936 300.3124 558.3785 587.1724 29693.9327 17.9532 66.8807
ENERGY: 1200000 9.9094 37.5808 33.0556 0.0000 -10718.3466 1363.5988 0.0000 0.0000 1748.8088 -7525.3932 295.3652 -9274.2020 -7513.6103 300.1409 -613.6337 -566.2658 30383.8348 -59.2825 -6.3206
ENERGY: 1500000 4.2637 40.4097 31.0526 0.0000 -10723.4161 1377.2586 0.0000 0.0000 1766.1977 -7504.2338 298.3021 -9270.4315 -7513.5382 300.3726 -546.3527 -521.1559 30478.7835 -135.7510 -79.3737
TCL: Running FEP window   3: Lambda1 0.1    Lambda2 0.15000000000000002 [dLambda 0.05000000000000002]
TCL: Setting parameter firsttimestep to 0
TCL: Setting parameter alchLambda to 0.1
Info: NONBONDED TABLE R-SQUARED SPACING: 0.0625
Info: NONBONDED TABLE SIZE: 705 POINTS
TCL: Setting parameter alchLambda2 to 0.15000000000000002
Info: NONBONDED TABLE R-SQUARED SPACING: 0.0625
Info: NONBONDED TABLE SIZE: 705 POINTS
TCL: Running for 1500000 steps
ETITLE: TS BOND ANGLE DIHED IMPRP ELECT VDW BOUNDARY MISC KINETIC TOTAL TEMP POTENTIAL TOTALAVG TEMPAVG PRESSURE GPRESSURE VOLUME PRESSAVG GPRESSAVG
ENERGY: 0 4.2637 40.4097 31.0526 0.0000 -10723.4152 1383.5852 0.0000 0.0000 1765.3542 -7498.7497 298.1596 -9264.1040 -7498.7497 298.1596 -588.7383 -497.4036 30478.7835 -588.7383 -497.4036
ENERGY: 300000 6.7960 36.9976 32.9206 0.0000 -10690.9332 1395.6001 0.0000 0.0000 1797.9119 -7420.7070 303.6585 -9218.6189 -7448.3412 300.5658 -278.1579 -151.0618 30567.0710 -129.6149 -20.7520
ENERGY: 600000 8.0434 40.9030 32.0210 0.0000 -10805.7794 1420.0634 0.0000 0.0000 1819.0600 -7485.6885 307.2303 -9304.7485 -7474.3034 302.1030 21.9930 135.1035 30218.6597 24.3336 125.9405
ENERGY: 900000 8.5089 37.4739 28.0357 0.0000 -10768.9487 1483.5611 0.0000 0.0000 1774.6400 -7436.7291 299.7280 -9211.3691 -7479.9425 300.7550 187.5586 270.0264 30662.3820 -123.8500 -27.6026
ENERGY: 1200000 10.3633 35.3007 27.3393 0.0000 -10821.8062 1423.9036 0.0000 0.0000 1850.8776 -7474.0217 312.6041 -9324.8993 -7488.3878 300.7401 -103.1486 -31.4666 30233.5230 -163.9243 -76.6872
ENERGY: 1500000 10.2542 42.3179 30.6829 0.0000 -10786.0431 1421.7009 0.0000 0.0000 1789.4582 -7491.6288 302.2307 -9281.0871 -7494.8493 301.1098 -432.4233 -423.8182 30482.7435 -77.9224 2.2126
TCL: Running FEP window   4: Lambda1 0.15000000000000002 Lambda2 0.2    [dLambda 0.04999999999999999]
TCL: Setting parameter firsttimestep to 0
TCL: Setting parameter alchLambda to 0.15000000000000002
Info: NONBONDED TABLE R-SQUARED SPACING: 0.0625
Info: NONBONDED TABLE SIZE: 705 POINTS
TCL: Setting parameter alchLambda2 to 0.2
Info: NONBONDED TABLE R-SQUARED SPACING: 0.0625
Info: NONBONDED TABLE SIZE: 705 POINTS
TCL: Running for 1500000 steps
ETITLE: TS BOND ANGLE DIHED IMPRP ELECT VDW BOUNDARY MISC KINETIC TOTAL TEMP POTENTIAL TOTALAVG TEMPAVG PRESSURE GPRESSURE VOLUME PRESSAVG GPRESSAVG
ENERGY: 0 10.2542 42.3179 30.6829 0.0000 -10786.0427 1424.5740 0.0000 0.0000 1788.5687 -7489.6450 302.0805 -9278.2137 -7489.6450 302.0805 -501.2841 -410.5745 30482.7435 -501.2841 -410.5745
ENERGY: 300000 4.5217 40.4484 28.4132 0.0000 -10741.6413 1395.7698 0.0000 0.0000 1764.8823 -7507.6060 298.0799 -9272.4883 -7487.3808 300.3804 -150.9159 -87.8625 30140.4189 -337.2848 -282.7292
ENERGY: 600000 4.1974 34.9926 30.6905 0.0000 -10814.6287 1389.4039 0.0000 0.0000 1763.4590 -7591.8854 297.8395 -9355.3444 -7497.0710 301.7626 -460.7123 -426.5586 30093.5124 -395.0240 -334.2875
ENERGY: 900000 6.3124 33.2068 34.8196 0.0000 -10860.3019 1470.5106 0.0000 0.0000 1805.7035 -7509.7490 304.9744 -9315.4526 -7493.7857 302.9091 550.5660 568.4560 30140.3440 -132.8218 -79.1408
ENERGY: 1200000 6.5130 38.7740 29.0982 0.0000 -10802.6225 1418.4037 0.0000 0.0000 1782.2905 -7527.5432 301.0201 -9309.8337 -7500.1400 301.6227 4.7534 60.5577 30282.2458 -87.5546 -32.2731
ENERGY: 1500000 5.9827 35.5898 28.6845 0.0000 -11017.2979 1550.1349 0.0000 0.0000 1769.9150 -7626.9911 298.9299 -9396.9060 -7509.3865 300.8458 863.0995 934.5329 30163.7168 -5.6387 48.3966
TCL: Running FEP window   5: Lambda1 0.2    Lambda2 0.25   [dLambda 0.04999999999999999]
TCL: Setting parameter firsttimestep to 0
TCL: Setting parameter alchLambda to 0.2
Info: NONBONDED TABLE R-SQUARED SPACING: 0.0625
Info: NONBONDED TABLE SIZE: 705 POINTS
TCL: Setting parameter alchLambda2 to 0.25
Info: NONBONDED TABLE R-SQUARED SPACING: 0.0625
Info: NONBONDED TABLE SIZE: 705 POINTS
TCL: Running for 1500000 steps
ETITLE: TS BOND ANGLE DIHED IMPRP ELECT VDW BOUNDARY MISC KINETIC TOTAL TEMP POTENTIAL TOTALAVG TEMPAVG PRESSURE GPRESSURE VOLUME PRESSAVG GPRESSAVG
ENERGY: 0 5.9827 35.5898 28.6845 0.0000 -11017.2974 1552.6073 0.0000 0.0000 1769.0184 -7625.4147 298.7785 -9394.4331 -7625.4147 298.7785 877.9689 956.0451 30163.7168 877.9689 956.0451
ENERGY: 300000 8.7237 37.1483 32.3032 0.0000 -10819.9925 1493.8857 0.0000 0.0000 1791.2487 -7456.6829 302.5331 -9247.9316 -7530.8887 299.0331 288.9467 390.2753 30436.8263 183.5354 260.3899
ENERGY: 600000 7.4185 33.0729 31.9448 0.0000 -10746.9529 1393.3662 0.0000 0.0000 1783.3633 -7497.7872 301.2013 -9281.1505 -7525.0050 300.9445 -380.5700 -273.8536 30554.6553 2.6657 79.9221
ENERGY: 900000 10.2515 42.9087 30.1847 0.0000 -10834.0275 1466.4709 0.0000 0.0000 1734.9360 -7549.2756 293.0222 -9284.2116 -7524.6535 300.3398 188.1509 283.6763 30582.1321 39.6114 111.2395
ENERGY: 1200000 5.8668 44.6378 27.2239 0.0000 -10778.0335 1410.2848 0.0000 0.0000 1747.1813 -7542.8389 295.0903 -9290.0202 -7518.7705 299.9421 -131.3537 -42.1311 30176.4292 6.0498 79.4166
ENERGY: 1500000 8.5554 37.6841 36.0337 0.0000 -10715.3866 1410.2207 0.0000 0.0000 1748.4159 -7474.4768 295.2988 -9222.8927 -7507.0650 300.6082 -260.3825 -193.7569 30645.8082 -23.1973 45.5811
TCL: Running FEP window   6: Lambda1 0.25   Lambda2 0.3    [dLambda 0.04999999999999999]
TCL: Setting parameter firsttimestep to 0
TCL: Setting parameter alchLambda to 0.25
Info: NONBONDED TABLE R-SQUARED SPACING: 0.0625
Info: NONBONDED TABLE SIZE: 705 POINTS
TCL: Setting parameter alchLambda2 to 0.3
Info: NONBONDED TABLE R-SQUARED SPACING: 0.0625
Info: NONBONDED TABLE SIZE: 705 POINTS
TCL: Running for 1500000 steps
ETITLE: TS BOND ANGLE DIHED IMPRP ELECT VDW BOUNDARY MISC KINETIC TOTAL TEMP POTENTIAL TOTALAVG TEMPAVG PRESSURE GPRESSURE VOLUME PRESSAVG GPRESSAVG
ENERGY: 0 8.5554 37.6841 36.0337 0.0000 -10715.3854 1409.6356 0.0000 0.0000 1747.5174 -7475.9591 295.1471 -9223.4765 -7475.9591 295.1471 -279.3527 -189.7044 30645.8082 -279.3527 -189.7044
ENERGY: 300000 9.2332 32.6460 29.5887 0.0000 -10816.1489 1398.8495 0.0000 0.0000 1806.2485 -7539.5830 305.0665 -9345.8315 -7520.1647 301.2429 -452.7112 -380.8524 30577.1037 -661.8351 -593.4299
ENERGY: 600000 10.5332 34.6286 30.2945 0.0000 -10790.8972 1361.5682 0.0000 0.0000 1802.4291 -7551.4436 304.4214 -9353.8728 -7503.2102 304.0255 -550.3202 -519.2333 30833.5080 -222.6667 -154.7340
ENERGY: 900000 9.5673 36.8323 31.4725 0.0000 -11031.2633 1548.0137 0.0000 0.0000 1778.4814 -7626.8961 300.3768 -9405.3775 -7530.7644 301.9829 796.3602 887.2215 29808.4457 -72.9317 -2.4330
ENERGY: 1200000 8.1848 42.0488 30.8738 0.0000 -10696.9502 1321.9678 0.0000 0.0000 1733.5756 -7560.2994 292.7924 -9293.8750 -7537.2288 300.0967 -909.8448 -844.6948 30182.0496 -164.8223 -96.3868
ENERGY: 1500000 4.7692 41.6491 31.0137 0.0000 -10716.5088 1410.7494 0.0000 0.0000 1783.5238 -7444.8036 301.2284 -9228.3274 -7527.4962 299.4949 -50.6454 -58.3148 30820.9400 -167.1470 -105.6770
TCL: Running FEP window   7: Lambda1 0.3    Lambda2 0.35   [dLambda 0.04999999999999999]
TCL: Setting parameter firsttimestep to 0
TCL: Setting parameter alchLambda to 0.3
Info: NONBONDED TABLE R-SQUARED SPACING: 0.0625
Info: NONBONDED TABLE SIZE: 705 POINTS
TCL: Setting parameter alchLambda2 to 0.35
Info: NONBONDED TABLE R-SQUARED SPACING: 0.0625
Info: NONBONDED TABLE SIZE: 705 POINTS
TCL: Running for 1500000 steps
ETITLE: TS BOND ANGLE DIHED IMPRP ELECT VDW BOUNDARY MISC KINETIC TOTAL TEMP POTENTIAL TOTALAVG TEMPAVG PRESSURE GPRESSURE VOLUME PRESSAVG GPRESSAVG
ENERGY: 0 4.7692 41.6491 31.0137 0.0000 -10716.5072 1410.3322 0.0000 0.0000 1782.6204 -7446.1227 301.0758 -9228.7430 -7446.1227 301.0758 -116.9623 -49.4859 30820.9400 -116.9623 -49.4859
ENERGY: 300000 8.7773 40.1807 27.8992 0.0000 -10749.6422 1354.5953 0.0000 0.0000 1767.8234 -7550.3663 298.5767 -9318.1896 -7499.6571 298.9472 -511.9629 -422.3060 30023.1797 -71.9974 -17.5394
ENERGY: 600000 6.4251 45.8013 28.9074 0.0000 -10750.5256 1392.9793 0.0000 0.0000 1798.2200 -7478.1925 303.7105 -9276.4125 -7491.3136 299.7577 -450.9477 -344.8422 30716.2778 -139.1326 -76.4331
ENERGY: 900000 11.8111 34.9329 29.7884 0.0000 -10795.0376 1391.2987 0.0000 0.0000 1746.4791 -7580.7274 294.9717 -9327.2065 -7509.6380 299.1740 -204.4001 -143.4994 30172.8722 -205.2181 -134.0045
ENERGY: 1200000 8.8437 39.7543 32.3302 0.0000 -10836.7781 1481.7264 0.0000 0.0000 1783.6894 -7490.4341 301.2564 -9274.1235 -7512.3921 299.4278 422.1160 440.9209 30674.0883 -220.4955 -156.8447
ENERGY: 1500000 6.5648 40.2697 29.4130 0.0000 -10775.2428 1411.8939 0.0000 0.0000 1779.3847 -7507.7169 300.5293 -9287.1015 -7508.6120 299.9684 -443.5764 -381.3439 30507.5266 -263.3014 -198.2711
TCL: Running FEP window   8: Lambda1 0.35   Lambda2 0.39999999999999997 [dLambda 0.04999999999999999]
TCL: Setting parameter firsttimestep to 0
TCL: Setting parameter alchLambda to 0.35
Info: NONBONDED TABLE R-SQUARED SPACING: 0.0625
Info: NONBONDED TABLE SIZE: 705 POINTS
TCL: Setting parameter alchLambda2 to 0.39999999999999997
Info: NONBONDED TABLE R-SQUARED SPACING: 0.0625
Info: NONBONDED TABLE SIZE: 705 POINTS
TCL: Running for 1500000 steps
ETITLE: TS BOND ANGLE DIHED IMPRP ELECT VDW BOUNDARY MISC KINETIC TOTAL TEMP POTENTIAL TOTALAVG TEMPAVG PRESSURE GPRESSURE VOLUME PRESSAVG GPRESSAVG
ENERGY: 0 6.5648 40.2697 29.4130 0.0000 -10775.2424 1413.3377 0.0000 0.0000 1778.4947 -7507.1627 300.3790 -9285.6573 -7507.1627 300.3790 -469.2768 -363.7877 30507.5266 -469.2768 -363.7877
ENERGY: 300000 7.9101 34.8253 33.4887 0.0000 -10813.1570 1437.1641 0.0000 0.0000 1794.2074 -7505.5614 303.0328 -9299.7688 -7479.3070 300.9536 -184.7832 -130.7626 30611.2043 -125.2601 -52.7650
ENERGY: 600000 9.9800 32.3816 30.9550 0.0000 -10719.4281 1417.6367 0.0000 0.0000 1796.9078 -7431.5669 303.4889 -9228.4748 -7497.1297 300.1220 323.1904 406.0977 30314.1762 28.1508 99.7629
ENERGY: 900000 6.5492 44.1490 30.3053 0.0000 -10882.3582 1460.6121 0.0000 0.0000 1715.9876 -7624.7549 289.8219 -9340.7425 -7513.0984 300.3612 -350.7589 -351.4513 30795.2971 -50.3728 11.8803
ENERGY: 1200000 6.6132 32.7447 29.3468 0.0000 -10828.0520 1415.3097 0.0000 0.0000 1764.6894 -7579.3483 298.0474 -9344.0377 -7515.6775 300.1312 -100.5757 -55.1095 30340.5656 -47.9451 16.3544
ENERGY: 1500000 10.8685 40.3787 26.2718 0.0000 -10567.3205 1304.9223 0.0000 0.0000 1830.9689 -7353.9103 309.2416 -9184.8792 -7506.0766 301.5757 -578.8797 -521.4469 30592.5674 -81.4277 -17.1065
TCL: Running FEP window   9: Lambda1 0.39999999999999997 Lambda2 0.44999999999999996 [dLambda 0.04999999999999999]
TCL: Setting parameter firsttimestep to 0
TCL: Setting parameter alchLambda to 0.39999999999999997
Info: NONBONDED TABLE R-SQUARED SPACING: 0.0625
Info: NONBONDED TABLE SIZE: 705 POINTS
TCL: Setting parameter alchLambda2 to 0.44999999999999996
Info: NONBONDED TABLE R-SQUARED SPACING: 0.0625
Info: NONBONDED TABLE SIZE: 705 POINTS
TCL: Running for 1500000 steps
ETITLE: TS BOND ANGLE DIHED IMPRP ELECT VDW BOUNDARY MISC KINETIC TOTAL TEMP POTENTIAL TOTALAVG TEMPAVG PRESSURE GPRESSURE VOLUME PRESSAVG GPRESSAVG
ENERGY: 0 10.8685 40.3787 26.2718 0.0000 -10567.3228 1305.2944 0.0000 0.0000 1830.1203 -7354.3890 309.0983 -9184.5094 -7354.3890 309.0983 -598.7921 -509.0804 30592.5674 -598.7921 -509.0804
ENERGY: 300000 5.9987 37.5930 27.4758 0.0000 -10822.2508 1443.6937 0.0000 0.0000 1817.1163 -7490.3733 306.9020 -9307.4896 -7495.2304 302.5776 130.7336 163.0568 30374.3145 -97.2442 -35.9796
ENERGY: 600000 6.1805 39.1935 29.7210 0.0000 -10765.4172 1408.8598 0.0000 0.0000 1768.3527 -7513.1096 298.6661 -9281.4623 -7499.2289 302.5208 -121.5560 -64.9299 30402.2793 -68.4708 -1.5957
ENERGY: 900000 6.6307 34.3137 28.6141 0.0000 -10810.5988 1442.5379 0.0000 0.0000 1741.8285 -7556.6740 294.1863 -9298.5025 -7515.5287 301.3319 311.0320 369.6177 30231.3590 81.2322 139.3555
ENERGY: 1200000 9.7548 36.3060 27.9157 0.0000 -10929.8444 1493.2259 0.0000 0.0000 1784.1806 -7578.4615 301.3393 -9362.6420 -7518.6884 301.7728 514.9123 596.9927 30015.6709 98.2027 154.8584
ENERGY: 1500000 6.2233 39.5203 28.8470 0.0000 -10824.1980 1479.2954 0.0000 0.0000 1772.4441 -7497.8678 299.3571 -9270.3119 -7517.6222 300.5209 479.7564 537.5060 30578.7957 30.9417 88.1720
TCL: Running FEP window  10: Lambda1 0.44999999999999996 Lambda2 0.49999999999999994 [dLambda 0.04999999999999999]
TCL: Setting parameter firsttimestep to 0
TCL: Setting parameter alchLambda to 0.44999999999999996
Info: NONBONDED TABLE R-SQUARED SPACING: 0.0625
Info: NONBONDED TABLE SIZE: 705 POINTS
TCL: Setting parameter alchLambda2 to 0.49999999999999994
Info: NONBONDED TABLE R-SQUARED SPACING: 0.0625
Info: NONBONDED TABLE SIZE: 705 POINTS
TCL: Running for 1500000 steps
ETITLE: TS BOND ANGLE DIHED IMPRP ELECT VDW BOUNDARY MISC KINETIC TOTAL TEMP POTENTIAL TOTALAVG TEMPAVG PRESSURE GPRESSURE VOLUME PRESSAVG GPRESSAVG
ENERGY: 0 6.2233 39.5203 28.8470 0.0000 -10824.1996 1478.8374 0.0000 0.0000 1771.5656 -7499.2060 299.2087 -9270.7716 -7499.2060 299.2087 457.8898 546.5931 30578.7957 457.8898 546.5931
ENERGY: 300000 5.5105 32.2747 36.2247 0.0000 -10761.3189 1348.4889 0.0000 0.0000 1795.8370 -7542.9831 303.3080 -9338.8201 -7522.0940 299.0066 -710.1180 -697.3548 30548.8775 -235.3385 -199.7065
ENERGY: 600000 8.1424 41.5142 28.0870 0.0000 -10789.0747 1447.9569 0.0000 0.0000 1761.4906 -7501.8835 297.5071 -9263.3742 -7515.4115 299.7393 218.2411 260.0936 30302.9579 -10.8086 32.0454
ENERGY: 900000 3.6734 35.8279 28.1449 0.0000 -10768.8056 1434.3187 0.0000 0.0000 1839.4752 -7427.3655 310.6783 -9266.8407 -7497.7900 301.2514 232.0689 337.2055 30641.6993 12.5297 56.7270
ENERGY: 1200000 5.5045 29.2600 31.8404 0.0000 -10816.4384 1483.4995 0.0000 0.0000 1751.8445 -7514.4894 295.8779 -9266.3339 -7497.1458 300.5413 644.9810 735.4175 30109.6149 74.9014 123.2009
ENERGY: 1500000 10.5835 39.9342 35.5195 0.0000 -10751.8270 1434.5487 0.0000 0.0000 1728.0463 -7503.1948 291.8585 -9231.2411 -7495.5989 300.6897 107.8732 158.2240 30526.9001 -35.0358 17.5160
TCL: Running FEP window  11: Lambda1 0.49999999999999994 Lambda2 0.5499999999999999 [dLambda 0.04999999999999999]
TCL: Setting parameter firsttimestep to 0
TCL: Setting parameter alchLambda to 0.49999999999999994
Info: NONBONDED TABLE R-SQUARED SPACING: 0.0625
Info: NONBONDED TABLE SIZE: 705 POINTS
TCL: Setting parameter alchLambda2 to 0.5499999999999999
Info: NONBONDED TABLE R-SQUARED SPACING: 0.0625
Info: NONBONDED TABLE SIZE: 705 POINTS
TCL: Running for 1500000 steps
ETITLE: TS BOND ANGLE DIHED IMPRP ELECT VDW BOUNDARY MISC KINETIC TOTAL TEMP POTENTIAL TOTALAVG TEMPAVG PRESSURE GPRESSURE VOLUME PRESSAVG GPRESSAVG
ENERGY: 0 10.5835 39.9342 35.5195 0.0000 -10751.8254 1434.4843 0.0000 0.0000 1727.1999 -7504.1041 291.7156 -9231.3039 -7504.1041 291.7156 83.0237 175.6010 30526.9001 83.0237 175.6010
ENERGY: 300000 9.9240 37.8920 29.2990 0.0000 -10800.6845 1457.8206 0.0000 0.0000 1770.1630 -7495.5859 298.9718 -9265.7489 -7489.1770 299.9308 192.2437 213.6014 30628.8699 137.7870 212.0475
ENERGY: 600000 6.9646 38.6494 28.8559 0.0000 -10804.8958 1463.1568 0.0000 0.0000 1759.5725 -7507.6967 297.1831 -9267.2692 -7498.4482 298.0666 390.1719 404.8025 30373.6833 85.1560 137.5438
ENERGY: 900000 4.9619 44.2271 28.3459 0.0000 -10944.7531 1529.3380 0.0000 0.0000 1746.2430 -7591.6373 294.9318 -9337.8802 -7500.9764 298.6344 798.0646 915.1424 30141.8422 127.4371 187.6069
ENERGY: 1200000 6.0702 34.8524 29.3553 0.0000 -10768.5990 1390.0807 0.0000 0.0000 1752.7025 -7555.5379 296.0228 -9308.2404 -7497.4103 299.1939 -574.2320 -497.7229 30681.1553 23.3516 80.7320
ENERGY: 1500000 8.4194 40.1338 30.0839 0.0000 -10824.1212 1434.7790 0.0000 0.0000 1748.5929 -7562.1122 295.3287 -9310.7051 -7508.1168 299.3623 -76.4049 -18.6436 30291.6393 -78.9605 -22.6888
TCL: Running FEP window  12: Lambda1 0.5499999999999999 Lambda2 0.6    [dLambda 0.050000000000000044]
TCL: Setting parameter firsttimestep to 0
TCL: Setting parameter alchLambda to 0.5499999999999999
Info: NONBONDED TABLE R-SQUARED SPACING: 0.0625
Info: NONBONDED TABLE SIZE: 705 POINTS
TCL: Setting parameter alchLambda2 to 0.6
Info: NONBONDED TABLE R-SQUARED SPACING: 0.0625
Info: NONBONDED TABLE SIZE: 705 POINTS
TCL: Running for 1500000 steps
ETITLE: TS BOND ANGLE DIHED IMPRP ELECT VDW BOUNDARY MISC KINETIC TOTAL TEMP POTENTIAL TOTALAVG TEMPAVG PRESSURE GPRESSURE VOLUME PRESSAVG GPRESSAVG
ENERGY: 0 8.4194 40.1338 30.0839 0.0000 -10824.8809 1433.7177 0.0000 0.0000 1747.6969 -7564.8291 295.1774 -9312.5261 -7564.8291 295.1774 -98.9837 -11.9670 30291.6393 -98.9837 -11.9670
ENERGY: 300000 6.2640 41.1524 30.3763 0.0000 -10745.5103 1377.1217 0.0000 0.0000 1801.1066 -7489.4893 304.1980 -9290.5959 -7518.3367 301.6179 -437.5775 -402.9073 30645.5099 -491.0494 -416.0874
ENERGY: 600000 7.5053 34.8192 34.2857 0.0000 -10883.6695 1503.5263 0.0000 0.0000 1777.1398 -7526.3932 300.1502 -9303.5330 -7507.6695 300.5459 738.8254 831.5579 30309.8054 -201.0094 -118.7753
ENERGY: 900000 10.7776 38.3005 27.4597 0.0000 -10782.9779 1370.3686 0.0000 0.0000 1798.4735 -7537.5980 303.7533 -9336.0715 -7512.1744 298.9684 -487.4662 -366.4719 30395.5991 -263.7745 -182.0306
ENERGY: 1200000 9.7426 36.7241 36.2808 0.0000 -11021.2188 1523.1260 0.0000 0.0000 1761.9683 -7653.3770 297.5878 -9415.3453 -7521.8339 299.0548 620.2224 664.1502 29971.4431 -223.1749 -151.0754
ENERGY: 1500000 6.9751 40.2071 28.8654 0.0000 -10868.7495 1441.4897 0.0000 0.0000 1741.0152 -7610.1970 294.0489 -9351.2122 -7532.8637 298.8753 -67.7515 21.9190 30708.8350 -204.7536 -130.5282
TCL: Running FEP window  13: Lambda1 0.6    Lambda2 0.65   [dLambda 0.050000000000000044]
TCL: Setting parameter firsttimestep to 0
TCL: Setting parameter alchLambda to 0.6
Info: NONBONDED TABLE R-SQUARED SPACING: 0.0625
Info: NONBONDED TABLE SIZE: 705 POINTS
TCL: Setting parameter alchLambda2 to 0.65
Info: NONBONDED TABLE R-SQUARED SPACING: 0.0625
Info: NONBONDED TABLE SIZE: 705 POINTS
TCL: Running for 1500000 steps
ETITLE: TS BOND ANGLE DIHED IMPRP ELECT VDW BOUNDARY MISC KINETIC TOTAL TEMP POTENTIAL TOTALAVG TEMPAVG PRESSURE GPRESSURE VOLUME PRESSAVG GPRESSAVG
ENERGY: 0 6.9751 40.2071 28.8654 0.0000 -10870.1651 1441.7111 0.0000 0.0000 1740.1154 -7612.2910 293.8969 -9352.4065 -7612.2910 293.8969 -40.7811 37.1284 30708.8350 -40.7811 37.1284
ENERGY: 300000 10.0362 43.2621 32.1620 0.0000 -10745.1564 1352.6200 0.0000 0.0000 1745.0577 -7562.0184 294.7317 -9307.0761 -7557.6873 295.3445 -508.1241 -405.3787 30717.2609 -433.1843 -359.9045
ENERGY: 600000 6.2906 41.8887 31.2962 0.0000 -10831.8826 1468.3046 0.0000 0.0000 1800.8409 -7483.2616 304.1532 -9284.1025 -7518.1558 299.0978 377.4026 475.3888 30850.0585 -208.2509 -124.6697
ENERGY: 900000 11.0291 31.7429 38.8093 0.0000 -10729.3585 1368.6675 0.0000 0.0000 1743.0635 -7536.0462 294.3949 -9279.1097 -7508.3239 300.3426 -802.6100 -741.0084 30907.8640 -222.7700 -149.4225
ENERGY: 1200000 4.9706 45.3331 25.3725 0.0000 -10797.5766 1443.0625 0.0000 0.0000 1797.8389 -7480.9989 303.6461 -9278.8378 -7525.0477 299.2918 180.2339 180.4284 30460.0871 -239.8366 -174.7069
ENERGY: 1500000 6.1188 33.2030 29.9749 0.0000 -10758.0475 1440.5077 0.0000 0.0000 1775.1313 -7473.1118 299.8109 -9248.2430 -7525.0180 299.1732 372.7608 385.4042 30140.2677 -160.2231 -101.5900
TCL: Running FEP window  14: Lambda1 0.65   Lambda2 0.7000000000000001 [dLambda 0.050000000000000044]
TCL: Setting parameter firsttimestep to 0
TCL: Setting parameter alchLambda to 0.65
Info: NONBONDED TABLE R-SQUARED SPACING: 0.0625
Info: NONBONDED TABLE SIZE: 705 POINTS
TCL: Setting parameter alchLambda2 to 0.7000000000000001
Info: NONBONDED TABLE R-SQUARED SPACING: 0.0625
Info: NONBONDED TABLE SIZE: 705 POINTS
TCL: Running for 1500000 steps
ETITLE: TS BOND ANGLE DIHED IMPRP ELECT VDW BOUNDARY MISC KINETIC TOTAL TEMP POTENTIAL TOTALAVG TEMPAVG PRESSURE GPRESSURE VOLUME PRESSAVG GPRESSAVG
ENERGY: 0 6.1189 33.2030 29.9749 0.0000 -10758.8592 1441.4365 0.0000 0.0000 1774.2488 -7473.8772 299.6619 -9248.1260 -7473.8772 299.6619 311.4474 415.8288 30140.2677 311.4474 415.8288
ENERGY: 300000 5.0357 35.1841 25.2396 0.0000 -10640.1079 1264.3129 0.0000 0.0000 1772.1473 -7538.1885 299.3070 -9310.3358 -7554.4253 300.1634 -1216.9605 -1165.6310 30658.8051 -289.8472 -214.8134
ENERGY: 600000 9.3641 35.8024 30.1444 0.0000 -10602.0225 1369.4478 0.0000 0.0000 1833.9775 -7323.2862 309.7498 -9157.2637 -7497.1264 302.9637 -493.7774 -418.9535 31454.6932 -179.3467 -111.6192
ENERGY: 900000 6.2018 38.8255 28.7791 0.0000 -11008.3551 1590.9858 0.0000 0.0000 1729.8383 -7613.7246 292.1612 -9343.5629 -7511.4806 301.7107 1365.8297 1403.2824 30572.6924 47.6662 112.9463
ENERGY: 1200000 5.6655 45.3847 32.4886 0.0000 -10675.3107 1308.9373 0.0000 0.0000 1728.3924 -7554.4423 291.9170 -9282.8346 -7524.6991 299.7759 -1015.9354 -962.6017 30790.0814 89.3533 150.2528
ENERGY: 1500000 7.1953 35.3874 29.3708 0.0000 -10603.1372 1295.4406 0.0000 0.0000 1788.4081 -7447.3350 302.0533 -9235.7431 -7515.4741 300.0573 -869.0386 -736.5645 30126.0989 -64.5317 0.0743
TCL: Running FEP window  15: Lambda1 0.7000000000000001 Lambda2 0.7500000000000001 [dLambda 0.050000000000000044]
TCL: Setting parameter firsttimestep to 0
TCL: Setting parameter alchLambda to 0.7000000000000001
Info: NONBONDED TABLE R-SQUARED SPACING: 0.0625
Info: NONBONDED TABLE SIZE: 705 POINTS
TCL: Setting parameter alchLambda2 to 0.7500000000000001
Info: NONBONDED TABLE R-SQUARED SPACING: 0.0625
Info: NONBONDED TABLE SIZE: 705 POINTS
TCL: Running for 1500000 steps
ETITLE: TS BOND ANGLE DIHED IMPRP ELECT VDW BOUNDARY MISC KINETIC TOTAL TEMP POTENTIAL TOTALAVG TEMPAVG PRESSURE GPRESSURE VOLUME PRESSAVG GPRESSAVG
ENERGY: 0 7.1953 35.3874 29.3708 0.0000 -10604.9367 1296.1675 0.0000 0.0000 1787.5983 -7449.2174 301.9166 -9236.8157 -7449.2174 301.9166 -804.9030 -708.7101 30126.0989 -804.9030 -708.7101
ENERGY: 300000 6.9914 30.5381 29.4995 0.0000 -10764.6223 1424.0599 0.0000 0.0000 1810.0095 -7463.5239 305.7017 -9273.5335 -7466.7259 305.1118 301.6411 413.8217 30652.9228 14.9854 76.6732
ENERGY: 600000 9.0964 39.3420 29.1562 0.0000 -10741.7121 1362.3901 0.0000 0.0000 1749.8700 -7551.8573 295.5444 -9301.7273 -7495.6734 301.0212 -666.0290 -637.6072 30594.5560 -145.1266 -76.4307
ENERGY: 900000 5.0281 37.6624 35.8203 0.0000 -10713.8485 1409.1899 0.0000 0.0000 1804.4970 -7421.6507 304.7707 -9226.1477 -7494.6439 301.5501 208.9411 252.8390 30518.2506 -91.3215 -32.2462
ENERGY: 1200000 3.8380 28.7716 31.8430 0.0000 -10715.2050 1448.9838 0.0000 0.0000 1756.6423 -7445.1263 296.6882 -9201.7686 -7498.1673 301.2602 638.6371 748.9895 30580.7889 -20.8998 42.3100
ENERGY: 1500000 7.1350 36.1423 31.3687 0.0000 -10741.7319 1434.0189 0.0000 0.0000 1819.5899 -7413.4770 307.3198 -9233.0669 -7505.1202 301.3652 444.4574 459.3839 30807.2526 -11.3090 48.0502
TCL: Running FEP window  16: Lambda1 0.7500000000000001 Lambda2 0.8000000000000002 [dLambda 0.050000000000000044]
TCL: Setting parameter firsttimestep to 0
TCL: Setting parameter alchLambda to 0.7500000000000001
Info: NONBONDED TABLE R-SQUARED SPACING: 0.0625
Info: NONBONDED TABLE SIZE: 705 POINTS
TCL: Setting parameter alchLambda2 to 0.8000000000000002
Info: NONBONDED TABLE R-SQUARED SPACING: 0.0625
Info: NONBONDED TABLE SIZE: 705 POINTS
TCL: Running for 1500000 steps
ETITLE: TS BOND ANGLE DIHED IMPRP ELECT VDW BOUNDARY MISC KINETIC TOTAL TEMP POTENTIAL TOTALAVG TEMPAVG PRESSURE GPRESSURE VOLUME PRESSAVG GPRESSAVG
ENERGY: 0 7.1350 36.1423 31.3687 0.0000 -10744.6167 1434.6727 0.0000 0.0000 1818.7087 -7416.5893 307.1710 -9235.2980 -7416.5893 307.1710 401.9888 481.0791 30807.2526 401.9888 481.0791
ENERGY: 300000 3.9558 33.3878 36.6597 0.0000 -10907.6987 1485.1539 0.0000 0.0000 1760.8976 -7587.6440 297.4069 -9348.5416 -7525.5330 299.4870 320.2764 368.9354 30770.6865 311.5008 367.6087
ENERGY: 600000 7.3082 38.8325 25.9669 0.0000 -10622.8288 1364.8929 0.0000 0.0000 1765.4766 -7420.3517 298.1803 -9185.8283 -7520.7281 299.8031 -326.9930 -241.6257 31244.0288 201.2458 249.2500
ENERGY: 900000 5.2704 38.0337 29.1937 0.0000 -10751.1939 1381.7109 0.0000 0.0000 1766.7493 -7530.2358 298.3953 -9296.9851 -7525.9563 300.0357 -360.6864 -294.1980 30721.2131 19.9960 66.6856
ENERGY: 1200000 7.6408 41.7545 24.4341 0.0000 -10742.8534 1439.8821 0.0000 0.0000 1792.2344 -7436.9076 302.6996 -9229.1420 -7523.4526 300.4128 263.8005 402.5903 30288.1048 76.5078 134.6627
ENERGY: 1500000 6.4200 34.7991 29.5396 0.0000 -10807.9203 1441.6918 0.0000 0.0000 1777.0544 -7518.4154 300.1357 -9295.4698 -7526.8988 300.5555 297.8236 402.5152 30373.1856 92.6678 150.1063
TCL: Running FEP window  17: Lambda1 0.8000000000000002 Lambda2 0.8500000000000002 [dLambda 0.050000000000000044]
TCL: Setting parameter firsttimestep to 0
TCL: Setting parameter alchLambda to 0.8000000000000002
Info: NONBONDED TABLE R-SQUARED SPACING: 0.0625
Info: NONBONDED TABLE SIZE: 705 POINTS
TCL: Setting parameter alchLambda2 to 0.8500000000000002
Info: NONBONDED TABLE R-SQUARED SPACING: 0.0625
Info: NONBONDED TABLE SIZE: 705 POINTS
TCL: Running for 1500000 steps
ETITLE: TS BOND ANGLE DIHED IMPRP ELECT VDW BOUNDARY MISC KINETIC TOTAL TEMP POTENTIAL TOTALAVG TEMPAVG PRESSURE GPRESSURE VOLUME PRESSAVG GPRESSAVG
ENERGY: 0 6.4201 34.7991 29.5396 0.0000 -10811.2683 1441.5282 0.0000 0.0000 1776.1526 -7522.8287 299.9834 -9298.9813 -7522.8287 299.9834 342.1613 421.4436 30373.1856 342.1613 421.4436
ENERGY: 300000 10.5477 40.7161 34.8172 0.0000 -10582.4360 1263.9556 0.0000 0.0000 1704.2188 -7528.1806 287.8342 -9232.3994 -7561.8402 296.2910 -1461.6897 -1304.4497 30948.2003 -300.8140 -219.4556
ENERGY: 600000 9.7315 38.1330 31.2685 0.0000 -10831.0212 1418.9902 0.0000 0.0000 1778.8408 -7554.0572 300.4375 -9332.8980 -7547.8791 299.0193 288.4530 309.7867 30459.2097 -47.1938 13.2778
ENERGY: 900000 4.0432 37.3424 30.1513 0.0000 -10904.8054 1504.8024 0.0000 0.0000 1848.7035 -7479.7628 312.2369 -9328.4662 -7544.2864 300.5860 693.0595 787.0796 30464.1836 -15.9176 42.6456
ENERGY: 1200000 6.1704 34.3816 34.9859 0.0000 -10603.9804 1374.3885 0.0000 0.0000 1791.4492 -7362.6048 302.5670 -9154.0540 -7536.1853 299.4228 -48.7733 -6.7518 30806.9672 -39.2327 14.6923
ENERGY: 1500000 8.4012 41.3309 31.1037 0.0000 -10904.8880 1490.2657 0.0000 0.0000 1807.9908 -7525.7957 305.3608 -9333.7865 -7536.6256 299.8473 380.6408 432.0399 30971.2312 90.8336 145.5434
TCL: Running FEP window  18: Lambda1 0.8500000000000002 Lambda2 0.9000000000000002 [dLambda 0.050000000000000044]
TCL: Setting parameter firsttimestep to 0
TCL: Setting parameter alchLambda to 0.8500000000000002
Info: NONBONDED TABLE R-SQUARED SPACING: 0.0625
Info: NONBONDED TABLE SIZE: 705 POINTS
TCL: Setting parameter alchLambda2 to 0.9000000000000002
Info: NONBONDED TABLE R-SQUARED SPACING: 0.0625
Info: NONBONDED TABLE SIZE: 705 POINTS
TCL: Running for 1500000 steps
ETITLE: TS BOND ANGLE DIHED IMPRP ELECT VDW BOUNDARY MISC KINETIC TOTAL TEMP POTENTIAL TOTALAVG TEMPAVG PRESSURE GPRESSURE VOLUME PRESSAVG GPRESSAVG
ENERGY: 0 8.4012 41.3309 31.1037 0.0000 -10907.4506 1490.7106 0.0000 0.0000 1807.1046 -7528.7996 305.2111 -9335.9043 -7528.7996 305.2111 363.9965 461.3700 30971.2312 363.9965 461.3700
ENERGY: 300000 5.6722 41.9417 29.1208 0.0000 -10706.2052 1383.6915 0.0000 0.0000 1775.8451 -7469.9339 299.9315 -9245.7791 -7549.8934 298.8135 -129.7620 -87.9251 30601.2850 121.2176 169.0087
ENERGY: 600000 5.9056 35.5485 30.8973 0.0000 -10905.9890 1498.5746 0.0000 0.0000 1764.7814 -7570.2816 298.0629 -9335.0630 -7559.0558 298.1587 582.5757 700.4092 30563.0522 283.0367 356.3403
ENERGY: 900000 5.9869 34.3930 29.3214 0.0000 -10789.9668 1417.7995 0.0000 0.0000 1755.1439 -7547.3220 296.4352 -9302.4659 -7557.8862 298.2975 167.2132 207.8943 30733.4183 333.8039 406.1531
ENERGY: 1200000 9.2236 33.9684 34.1662 0.0000 -10809.0092 1398.2002 0.0000 0.0000 1787.6896 -7545.7611 301.9320 -9333.4508 -7559.5489 298.2174 -73.5633 -9.2995 30534.3194 293.4194 362.7158
ENERGY: 1500000 5.3713 35.8505 30.3456 0.0000 -10590.8284 1319.2674 0.0000 0.0000 1726.0208 -7473.9729 291.5164 -9199.9937 -7555.2486 297.3493 -638.4792 -614.6852 31287.1784 167.6678 234.4384
TCL: Running FEP window  19: Lambda1 0.9000000000000002 Lambda2 0.9500000000000003 [dLambda 0.050000000000000044]
TCL: Setting parameter firsttimestep to 0
TCL: Setting parameter alchLambda to 0.9000000000000002
Info: NONBONDED TABLE R-SQUARED SPACING: 0.0625
Info: NONBONDED TABLE SIZE: 705 POINTS
TCL: Setting parameter alchLambda2 to 0.9500000000000003
Info: NONBONDED TABLE R-SQUARED SPACING: 0.0625
Info: NONBONDED TABLE SIZE: 705 POINTS
TCL: Running for 1500000 steps
ETITLE: TS BOND ANGLE DIHED IMPRP ELECT VDW BOUNDARY MISC KINETIC TOTAL TEMP POTENTIAL TOTALAVG TEMPAVG PRESSURE GPRESSURE VOLUME PRESSAVG GPRESSAVG
ENERGY: 0 5.3713 35.8505 30.3456 0.0000 -10593.8090 1319.6523 0.0000 0.0000 1725.1826 -7477.4068 291.3749 -9202.5894 -7477.4068 291.3749 -669.8651 -587.4658 31287.1784 -669.8651 -587.4658
ENERGY: 300000 9.5142 34.0856 26.7935 0.0000 -10968.9664 1466.6016 0.0000 0.0000 1779.3585 -7652.6130 300.5249 -9431.9715 -7579.5515 297.3834 180.9425 233.4162 30349.2936 67.4289 133.5415
ENERGY: 600000 5.4877 38.2410 30.1732 0.0000 -10803.1314 1365.7538 0.0000 0.0000 1755.0624 -7608.4132 296.4214 -9363.4756 -7580.8395 299.1258 -894.1981 -820.3863 31039.7543 -30.5030 38.8228
ENERGY: 900000 10.0868 34.8909 33.9706 0.0000 -10673.0791 1356.5600 0.0000 0.0000 1736.9069 -7500.6639 293.3550 -9237.5708 -7559.5083 300.6499 -302.7465 -252.3463 30459.7545 -156.4202 -91.1129
ENERGY: 1200000 7.3004 35.1635 29.6594 0.0000 -10809.3702 1364.8532 0.0000 0.0000 1789.8671 -7582.5267 302.2997 -9372.3937 -7556.4791 300.5634 -857.6708 -850.5224 31040.8272 -158.4806 -92.8268
ENERGY: 1500000 7.9749 36.5715 30.4506 0.0000 -10610.1238 1279.4533 0.0000 0.0000 1750.0716 -7505.6019 295.5785 -9255.6735 -7546.7528 299.7263 -990.9503 -964.6203 30860.3101 -276.1006 -209.8740
TCL: Running FEP window  20: Lambda1 0.9500000000000003 Lambda2 1.0    [dLambda 0.04999999999999971]
TCL: Setting parameter firsttimestep to 0
TCL: Setting parameter alchLambda to 0.9500000000000003
Info: NONBONDED TABLE R-SQUARED SPACING: 0.0625
Info: NONBONDED TABLE SIZE: 705 POINTS
TCL: Setting parameter alchLambda2 to 1.0
Info: NONBONDED TABLE R-SQUARED SPACING: 0.0625
Info: NONBONDED TABLE SIZE: 705 POINTS
TCL: Running for 1500000 steps
ETITLE: TS BOND ANGLE DIHED IMPRP ELECT VDW BOUNDARY MISC KINETIC TOTAL TEMP POTENTIAL TOTALAVG TEMPAVG PRESSURE GPRESSURE VOLUME PRESSAVG GPRESSAVG
ENERGY: 0 7.9749 36.5715 30.4506 0.0000 -10613.3518 1280.4767 0.0000 0.0000 1749.2002 -7508.6778 295.4313 -9257.8781 -7508.6778 295.4313 -1003.4400 -928.6127 30860.3101 -1003.4400 -928.6127
ENERGY: 300000 6.3046 41.9700 26.7303 0.0000 -11023.2496 1583.2117 0.0000 0.0000 1781.0589 -7583.9741 300.8121 -9365.0329 -7554.9842 297.2283 1650.2001 1670.3731 30240.0583 386.3185 441.8872
ENERGY: 600000 5.5210 34.9155 32.4984 0.0000 -10718.8912 1332.0769 0.0000 0.0000 1788.2673 -7525.6122 302.0295 -9313.8794 -7527.1113 300.9511 -662.5554 -671.3793 30782.0351 174.2557 234.6035
ENERGY: 900000 12.7868 35.0394 32.0776 0.0000 -10818.0864 1363.7314 0.0000 0.0000 1776.8278 -7597.6234 300.0975 -9374.4512 -7536.6739 300.2047 -649.2257 -647.6924 30771.8803 24.0967 81.5124
ENERGY: 1200000 6.8463 34.7875 30.9906 0.0000 -10938.2787 1452.1964 0.0000 0.0000 1818.4531 -7595.0047 307.1278 -9413.4578 -7543.3503 300.6942 130.0534 175.0850 30588.4019 -9.3637 41.3165
ENERGY: 1500000 6.1012 33.7437 31.1732 0.0000 -10792.9911 1386.7968 0.0000 0.0000 1779.4617 -7555.7145 300.5423 -9335.1762 -7543.4386 300.4331 -443.2163 -335.3695 30828.0036 -54.3587 3.9612
TCL: Exiting due to exit command.
