Info: SIMULATION PARAMETERS:
Info: TIMESTEP               2
Info: NUMBER OF STEPS        0
Info: STEPS PER CYCLE        10
Info: PERIODIC CELL BASIS 1  33.053 0 0
Info: PERIODIC CELL BASIS 2  0 31.1388 0
Info: PERIODIC CELL BASIS 3  0 0 29.9106
Info: PERIODIC CELL CENTER   0 0 0
Info: WRAPPING WATERS AROUND PERIODIC BOUNDARIES ON OUTPUT.
Info: WRAPPING ALL CLUSTERS AROUND PERIODIC BOUNDARIES ON OUTPUT.
Info: FIRST LDB TIMESTEP     50
Info: LAST LDB TIMESTEP     -1
Info: HOM BACKGROUND SCALING 1
Info: PME BACKGROUND SCALING 1
Info: MIN ATOMS PER PATCH    40
Info: EMPTY PATCH LOAD       40 ATOMS
Info: VELOCITY FILE          mobley_6522117_equil.vel
Info: CENTER OF MASS MOVING INITIALLY? NO
Info: DIELECTRIC             1
Info: EXCLUDE                SCALED ONE-FOUR
Info: 1-4 ELECTROSTATICS SCALED BY 0.833333
Info: MODIFIED 1-4 VDW PARAMETERS WILL BE USED
Info: DCD FILENAME           mobley_6522117_prod.dcd
Info: DCD FREQUENCY          100000
Info: DCD FIRST STEP         100000
Info: DCD FILE WILL CONTAIN UNIT CELL DATA
Info: XST FILENAME           mobley_6522117_prod.xst
Info: XST FREQUENCY          100000
Info: NO VELOCITY DCD OUTPUT
Info: NO FORCE DCD OUTPUT
Info: OUTPUT FILENAME        mobley_6522117_prod
Info: BINARY OUTPUT FILES WILL BE USED
Info: RESTART FILENAME       mobley_6522117_prod.restart
Info: RESTART FREQUENCY      100000
Info: BINARY RESTART FILES WILL BE USED
Info: CUTOFF                 9
Info: PAIRLIST DISTANCE      11
Info: PAIRLIST SHRINK RATE   0.01
Info: PAIRLIST GROW RATE     0.01
Info: PAIRLIST TRIGGER       0.3
Info: PAIRLISTS PER CYCLE    2
Info: PAIRLISTS ENABLED
Info: MARGIN                 2
Info: HYDROGEN GROUP CUTOFF  2.5
Info: PATCH DIMENSION        15.5
Info: ENERGY OUTPUT STEPS    100000
Info: ENERGY EVALUATION STEPS    100000
Info: OUTPUT ENERGY PRECISION 4
Info: CROSSTERM ENERGY INCLUDED IN DIHEDRAL
Info: TIMING OUTPUT STEPS    1000000
Info: PRESSURE OUTPUT STEPS  100000
Info: ALCHEMICAL FEP ON
Info: FEP CURRENT LAMBDA VALUE     1
Info: FEP COMPARISON LAMBDA VALUE  0.95
Info: FEP INTRA-ALCHEMICAL NON-BONDED INTERACTIONS WILL BE RETAINED
Info: FEP INTRA-ALCHEMICAL BONDED INTERACTIONS WILL BE RETAINED
Info: FEP VDW SHIFTING COEFFICIENT 5
Info: FEP ELEC. ACTIVE FOR ANNIHILATED PARTICLES BETWEEN LAMBDA = 0 AND LAMBDA = 0.5
Info: FEP ELEC. ACTIVE FOR EXNIHILATED PARTICLES BETWEEN LAMBDA = 0.5 AND LAMBDA = 1
Info: FEP VDW ACTIVE FOR ANNIHILATED PARTICLES BETWEEN LAMBDA = 0 AND LAMBDA = 1
Info: FEP VDW ACTIVE FOR EXNIHILATED PARTICLES BETWEEN LAMBDA = 0 AND LAMBDA = 1
Info: FEP BOND ACTIVE FOR ANNIHILATED PARTICLES BETWEEN LAMBDA = 1 AND LAMBDA = 1
Info: FEP BOND ACTIVE FOR EXNIHILATED PARTICLES BETWEEN LAMBDA = 0 AND LAMBDA = 0
Info: LANGEVIN DYNAMICS ACTIVE
Info: LANGEVIN TEMPERATURE   300
Info: LANGEVIN USING BBK INTEGRATOR
Info: LANGEVIN DAMPING COEFFICIENT IS 1 INVERSE PS
Info: LANGEVIN DYNAMICS APPLIED TO HYDROGENS
Info: LANGEVIN PISTON PRESSURE CONTROL ACTIVE
Info:        TARGET PRESSURE IS 1.01325 BAR
Info:     OSCILLATION PERIOD IS 50 FS
Info:             DECAY TIME IS 25 FS
Info:     PISTON TEMPERATURE IS 300 K
Info:       PRESSURE CONTROL IS GROUP-BASED
Info:    INITIAL STRAIN RATE IS -0.000215328 -0.000215328 -0.000215328
Info:       CELL FLUCTUATION IS ISOTROPIC
Info: PARTICLE MESH EWALD (PME) ACTIVE
Info: PME TOLERANCE               1e-06
Info: PME EWALD COEFFICIENT       0.348832
Info: PME INTERPOLATION ORDER     4
Info: PME GRID DIMENSIONS         36 32 32
Info: PME MAXIMUM GRID SPACING    1
Info: PME CALCULATION WILL BE PERFORMED ON GPU
Info: FULL ELECTROSTATIC EVALUATION FREQUENCY      2
Info: USING VERLET I (r-RESPA) MTS SCHEME.
Info: C1 SPLITTING OF LONG RANGE ELECTROSTATICS
Info: PLACING ATOMS IN PATCHES BY HYDROGEN GROUPS
Info: RIGID BONDS TO HYDROGEN : ALL
Info:         ERROR TOLERANCE : 1e-08
Info:          MAX ITERATIONS : 100
Info: RIGID WATER USING SETTLE ALGORITHM
Info: RANDOM NUMBER SEED     1744086710
Info: USE HYDROGEN BONDS?    NO
Info: Using AMBER format force field!
Info: AMBER PARM FILE        mobley_6522117.prmtop
Info: COORDINATE PDB         mobley_6522117.pdb
Info: Exclusions will be read from PARM file!
Info: SCNB (VDW SCALING)     2
Info: USING ARITHMETIC MEAN TO COMBINE L-J SIGMA PARAMETERS
Info: BINARY COORDINATES     mobley_6522117_equil.coor
Info: SUMMARY OF PARAMETERS:
Info: 16 BONDS
Info: 20 ANGLES
Info:   20 HARMONIC
Info:   0 COSINE-BASED
Info: 15 DIHEDRAL
Info: 0 IMPROPER
Info: 0 CROSSTERM
Info: 0 VDW
Info: 78 VDW_PAIRS
Info: 0 NBTHOLE_PAIRS
Info: To read alchdata from file: mobley_6522117.pdb
Info: To read alchflag data from column: 5
Info: STRUCTURE SUMMARY:
Info: 2959 ATOMS
Info: 2959 BONDS
Info: 57 ANGLES
Info: 89 DIHEDRALS
Info: 0 IMPROPERS
Info: 0 CROSSTERMS
Info: 3080 EXCLUSIONS
Info: 2939 RIGID BONDS
Info: ALCH: 0 ATOMS TO DISAPPEAR IN FINAL STATE
Info: ALCH: 34 ATOMS TO APPEAR IN FINAL STATE
Info: 5938 DEGREES OF FREEDOM
Info: 995 HYDROGEN GROUPS
Info: 4 ATOMS IN LARGEST HYDROGEN GROUP
Info: 995 MIGRATION GROUPS
Info: 4 ATOMS IN LARGEST MIGRATION GROUP
Info: TOTAL MASS = 17925.2 amu
Info: TOTAL CHARGE = -0.000500076 e
Info: MASS DENSITY = 0.966909 g/cm^3
Info: ATOM DENSITY = 0.0961188 atoms/A^3
Info: ADDED 0 IMPLICIT EXCLUSIONS
Info: NONBONDED TABLE R-SQUARED SPACING: 0.0625
Info: NONBONDED TABLE SIZE: 705 POINTS
Info: REDUCING NUMBER OF PATCHES TO IMPROVE LOAD BALANCE
Info: REMOVING COM VELOCITY 0.0324383 0.0361832 -0.0735447
Info: Use 3D box decompostion in PME FFT.
Info: Updated CUDA force table with 4096 elements.
Info: Updated CUDA LJ table with 12 x 12 elements.
Info: Found 36 unique exclusion lists needing 160 bytes
TCL: Running for 1500000 steps
ETITLE: TS BOND ANGLE DIHED IMPRP ELECT VDW BOUNDARY MISC KINETIC TOTAL TEMP POTENTIAL TOTALAVG TEMPAVG PRESSURE GPRESSURE VOLUME PRESSAVG GPRESSAVG
ENERGY: 0 5.9607 12.2218 29.0182 0.0000 -10651.9368 1385.1924 0.0000 0.0000 1728.9415 -7490.6021 293.0424 -9219.5436 -7490.6021 293.0424 -98.1937 4.8743 30784.8255 -98.1937 4.8743
ENERGY: 300000 5.0152 12.2875 21.9332 0.0000 -10867.0643 1534.3973 0.0000 0.0000 1805.1840 -7488.2472 305.9649 -9293.4311 -7497.4112 300.8129 807.4068 845.2850 30900.2592 191.1737 263.8393
ENERGY: 600000 7.7874 10.9100 27.0639 0.0000 -10731.4240 1380.8816 0.0000 0.0000 1784.7785 -7520.0026 302.5064 -9304.7811 -7478.7338 301.9565 -581.2022 -489.0660 30800.1958 5.2304 64.9293
ENERGY: 900000 5.4767 14.1532 30.3884 0.0000 -10829.6391 1452.4796 0.0000 0.0000 1788.8310 -7538.3101 303.1932 -9327.1412 -7498.0191 301.5231 324.3770 331.8821 30467.9149 104.0754 153.6312
ENERGY: 1200000 6.0686 19.2626 30.1436 0.0000 -10569.0551 1305.9960 0.0000 0.0000 1806.5202 -7401.0641 306.1914 -9207.5843 -7493.9311 301.3163 -990.0037 -884.6425 31077.9019 8.8531 65.1745
ENERGY: 1500000 4.8566 12.2962 24.0173 0.0000 -10691.0620 1433.7094 0.0000 0.0000 1779.2294 -7436.9531 301.5658 -9216.1825 -7484.7331 301.2453 -111.5916 -52.3086 30866.7423 -9.6342 49.4658
TCL: Running FEP window   2: Lambda1 0.95   Lambda2 0.8999999999999999 [dLambda -0.050000000000000044]
TCL: Setting parameter firsttimestep to 0
TCL: Setting parameter alchLambda to 0.95
Info: NONBONDED TABLE R-SQUARED SPACING: 0.0625
Info: NONBONDED TABLE SIZE: 705 POINTS
TCL: Setting parameter alchLambda2 to 0.8999999999999999
Info: NONBONDED TABLE R-SQUARED SPACING: 0.0625
Info: NONBONDED TABLE SIZE: 705 POINTS
TCL: Running for 1500000 steps
ETITLE: TS BOND ANGLE DIHED IMPRP ELECT VDW BOUNDARY MISC KINETIC TOTAL TEMP POTENTIAL TOTALAVG TEMPAVG PRESSURE GPRESSURE VOLUME PRESSAVG GPRESSAVG
ENERGY: 0 4.8566 12.2962 24.0173 0.0000 -10688.5142 1433.8275 0.0000 0.0000 1778.3477 -7435.1689 301.4164 -9213.5166 -7435.1689 301.4164 -145.8855 -69.6527 30866.7423 -145.8855 -69.6527
ENERGY: 300000 7.7377 12.1746 29.0785 0.0000 -10656.6642 1351.4064 0.0000 0.0000 1764.5855 -7491.6815 299.0838 -9256.2670 -7492.5564 301.2583 -419.3696 -349.4909 30503.5377 393.9235 445.6129
ENERGY: 600000 6.7716 15.0160 28.6346 0.0000 -10786.2362 1486.2571 0.0000 0.0000 1748.6955 -7500.8615 296.3906 -9249.5570 -7510.3032 298.9254 409.2739 523.1406 30504.8505 252.8035 318.0916
ENERGY: 900000 13.8255 13.3449 27.9145 0.0000 -10616.7464 1325.9193 0.0000 0.0000 1736.7898 -7498.9524 294.3726 -9235.7422 -7501.9904 298.9722 -1153.2159 -1085.0722 30832.6122 -43.9213 20.4746
ENERGY: 1200000 6.1384 16.8758 27.5861 0.0000 -10627.5736 1322.6151 0.0000 0.0000 1737.7468 -7516.6112 294.5349 -9254.3581 -7494.8516 300.0878 -728.4059 -680.1959 30330.8625 -73.6543 -12.6075
ENERGY: 1500000 5.1296 9.3115 27.0251 0.0000 -10790.3324 1436.0663 0.0000 0.0000 1829.9072 -7482.8928 310.1553 -9312.8000 -7507.9461 299.7960 249.9662 266.5303 30395.0672 -14.1538 46.6510
TCL: Running FEP window   3: Lambda1 0.8999999999999999 Lambda2 0.8499999999999999 [dLambda -0.050000000000000044]
TCL: Setting parameter firsttimestep to 0
TCL: Setting parameter alchLambda to 0.8999999999999999
Info: NONBONDED TABLE R-SQUARED SPACING: 0.0625
Info: NONBONDED TABLE SIZE: 705 POINTS
TCL: Setting parameter alchLambda2 to 0.8499999999999999
Info: NONBONDED TABLE R-SQUARED SPACING: 0.0625
Info: NONBONDED TABLE SIZE: 705 POINTS
TCL: Running for 1500000 steps
ETITLE: TS BOND ANGLE DIHED IMPRP ELECT VDW BOUNDARY MISC KINETIC TOTAL TEMP POTENTIAL TOTALAVG TEMPAVG PRESSURE GPRESSURE VOLUME PRESSAVG GPRESSAVG
ENERGY: 0 5.1296 9.3115 27.0251 0.0000 -10788.3133 1436.0357 0.0000 0.0000 1829.0096 -7481.8017 310.0032 -9310.8114 -7481.8017 310.0032 159.1532 244.5947 30395.0672 159.1532 244.5947
ENERGY: 300000 5.0381 16.9256 24.4129 0.0000 -10795.1154 1458.8513 0.0000 0.0000 1772.3105 -7517.5769 300.3931 -9289.8875 -7484.2832 304.0426 269.3087 364.2652 30554.6965 407.5150 493.4804
ENERGY: 600000 7.2569 14.8622 26.0469 0.0000 -10562.7262 1339.5173 0.0000 0.0000 1826.5058 -7348.5372 309.5788 -9175.0430 -7471.1056 304.2129 -294.6235 -259.4484 30905.9039 216.0037 294.3268
ENERGY: 900000 6.9686 15.6986 24.3432 0.0000 -10744.3190 1414.4280 0.0000 0.0000 1788.5914 -7494.2892 303.1526 -9282.8806 -7472.0615 303.2031 -53.0787 79.6952 30305.9300 -13.1252 66.2650
ENERGY: 1200000 4.2386 14.1832 25.0508 0.0000 -10571.7163 1341.3516 0.0000 0.0000 1739.7383 -7447.1538 294.8724 -9186.8921 -7480.7851 302.2244 -156.4935 -65.2531 30347.7681 87.7979 166.8727
ENERGY: 1500000 7.3786 12.9073 24.2681 0.0000 -10654.4542 1450.7606 0.0000 0.0000 1789.6662 -7369.4734 303.3348 -9159.1396 -7474.3298 302.0095 554.7803 565.5000 30922.7626 151.2243 224.4899
TCL: Running FEP window   4: Lambda1 0.8499999999999999 Lambda2 0.7999999999999998 [dLambda -0.050000000000000044]
TCL: Setting parameter firsttimestep to 0
TCL: Setting parameter alchLambda to 0.8499999999999999
Info: NONBONDED TABLE R-SQUARED SPACING: 0.0625
Info: NONBONDED TABLE SIZE: 705 POINTS
TCL: Setting parameter alchLambda2 to 0.7999999999999998
Info: NONBONDED TABLE R-SQUARED SPACING: 0.0625
Info: NONBONDED TABLE SIZE: 705 POINTS
TCL: Running for 1500000 steps
ETITLE: TS BOND ANGLE DIHED IMPRP ELECT VDW BOUNDARY MISC KINETIC TOTAL TEMP POTENTIAL TOTALAVG TEMPAVG PRESSURE GPRESSURE VOLUME PRESSAVG GPRESSAVG
ENERGY: 0 7.3786 12.9073 24.2681 0.0000 -10652.7181 1450.6853 0.0000 0.0000 1788.8103 -7368.6684 303.1897 -9157.4787 -7368.6684 303.1897 461.7565 542.7656 30922.7626 461.7565 542.7656
ENERGY: 300000 3.1995 14.5015 24.6091 0.0000 -10775.0639 1416.5242 0.0000 0.0000 1797.0717 -7519.1578 304.5900 -9316.2295 -7511.2502 300.0018 148.4231 237.0131 30051.0303 -17.5147 55.2147
ENERGY: 600000 5.4916 14.4160 32.2409 0.0000 -10773.3600 1450.1887 0.0000 0.0000 1812.4418 -7458.5810 307.1951 -9271.0228 -7503.4354 300.4977 516.9079 647.6752 30149.6180 67.3323 143.0698
ENERGY: 900000 3.9118 13.2075 26.9330 0.0000 -10786.8831 1459.1682 0.0000 0.0000 1733.5636 -7550.0989 293.8258 -9283.6626 -7515.9041 299.4738 35.5791 130.1625 30755.4801 34.5280 111.0411
ENERGY: 1200000 5.9100 12.0317 28.5344 0.0000 -10763.7907 1431.4179 0.0000 0.0000 1732.7065 -7553.1901 293.6806 -9285.8967 -7514.3680 300.0631 -386.8717 -283.6644 30923.4512 72.0985 148.0972
ENERGY: 1500000 2.9675 11.2589 24.9256 0.0000 -10700.1626 1396.9228 0.0000 0.0000 1750.0826 -7514.0052 296.6257 -9264.0878 -7516.6261 299.6089 98.6910 183.7377 29832.8961 33.5114 104.8674
TCL: Running FEP window   5: Lambda1 0.7999999999999998 Lambda2 0.7499999999999998 [dLambda -0.050000000000000044]
TCL: Setting parameter firsttimestep to 0
TCL: Setting parameter alchLambda to 0.7999999999999998
Info: NONBONDED TABLE R-SQUARED SPACING: 0.0625
Info: NONBONDED TABLE SIZE: 705 POINTS
TCL: Setting parameter alchLambda2 to 0.7499999999999998
Info: NONBONDED TABLE R-SQUARED SPACING: 0.0625
Info: NONBONDED TABLE SIZE: 705 POINTS
TCL: Running for 1500000 steps
ETITLE: TS BOND ANGLE DIHED IMPRP ELECT VDW BOUNDARY MISC KINETIC TOTAL TEMP POTENTIAL TOTALAVG TEMPAVG PRESSURE GPRESSURE VOLUME PRESSAVG GPRESSAVG
ENERGY: 0 2.9675 11.2589 24.9256 0.0000 -10697.7240 1396.7068 0.0000 0.0000 1749.2079 -7512.6572 296.4774 -9261.8651 -7512.6572 296.4774 79.0004 164.0582 29832.8961 79.0004 164.0582
ENERGY: 300000 4.0304 13.2507 24.4391 0.0000 -10666.7145 1426.1128 0.0000 0.0000 1734.4253 -7464.4563 293.9719 -9198.8816 -7459.0960 298.7167 182.4632 226.4918 30633.6220 -136.5686 -83.2148
ENERGY: 600000 7.0012 10.6188 24.6483 0.0000 -10649.8308 1383.1236 0.0000 0.0000 1809.2732 -7415.1657 306.6580 -9224.4389 -7468.1212 299.0969 42.3577 114.3546 30354.1768 -217.4696 -145.8841
ENERGY: 900000 4.2781 14.8594 26.0379 0.0000 -10651.0784 1381.5125 0.0000 0.0000 1808.8710 -7415.5195 306.5899 -9224.3905 -7467.2545 300.5912 -13.6423 27.1535 30350.7198 -172.3874 -105.9241
ENERGY: 1200000 8.8689 14.9848 23.4438 0.0000 -10711.8936 1382.9807 0.0000 0.0000 1755.1244 -7526.4910 297.4802 -9281.6155 -7470.0158 301.0496 -680.8258 -657.0274 30639.3618 -210.3952 -149.1843
ENERGY: 1500000 5.3346 12.9005 27.9622 0.0000 -10664.9157 1453.2312 0.0000 0.0000 1787.2186 -7378.2687 302.9199 -9165.4873 -7468.7241 300.8888 758.7978 848.9116 30522.9453 -114.6441 -52.5653
TCL: Running FEP window   6: Lambda1 0.7499999999999998 Lambda2 0.6999999999999997 [dLambda -0.050000000000000044]
TCL: Setting parameter firsttimestep to 0
TCL: Setting parameter alchLambda to 0.7499999999999998
Info: NONBONDED TABLE R-SQUARED SPACING: 0.0625
Info: NONBONDED TABLE SIZE: 705 POINTS
TCL: Setting parameter alchLambda2 to 0.6999999999999997
Info: NONBONDED TABLE R-SQUARED SPACING: 0.0625
Info: NONBONDED TABLE SIZE: 705 POINTS
TCL: Running for 1500000 steps
ETITLE: TS BOND ANGLE DIHED IMPRP ELECT VDW BOUNDARY MISC KINETIC TOTAL TEMP POTENTIAL TOTALAVG TEMPAVG PRESSURE GPRESSURE VOLUME PRESSAVG GPRESSAVG
ENERGY: 0 5.3346 12.9005 27.9622 0.0000 -10662.8625 1454.0557 0.0000 0.0000 1786.3188 -7376.2907 302.7674 -9162.6095 -7376.2907 302.7674 759.8268 845.6224 30522.9453 759.8268 845.6224
ENERGY: 300000 7.0081 14.9654 30.7862 0.0000 -10842.3005 1465.6438 0.0000 0.0000 1764.5990 -7559.2979 299.0861 -9323.8970 -7483.7990 303.0432 280.7429 395.7041 30295.5919 202.9591 263.8310
ENERGY: 600000 6.0477 12.8766 24.8181 0.0000 -10752.2794 1432.7103 0.0000 0.0000 1796.7251 -7479.1015 304.5312 -9275.8266 -7484.5967 303.5754 -189.9659 -130.4070 30647.7785 91.7774 143.4855
ENERGY: 900000 11.1306 10.9428 29.3596 0.0000 -10668.6614 1381.9748 0.0000 0.0000 1776.3852 -7458.8684 301.0838 -9235.2536 -7488.7824 302.8477 -525.9684 -477.6071 30583.6018 -42.6744 2.7461
ENERGY: 1200000 6.2751 10.2057 28.7122 0.0000 -10677.7631 1392.0619 0.0000 0.0000 1835.0348 -7405.4733 311.0244 -9240.5082 -7484.1082 303.0019 -322.7296 -186.9573 30563.6309 -55.6713 -5.8147
ENERGY: 1500000 4.3327 15.7788 26.5734 0.0000 -10762.2047 1437.3735 0.0000 0.0000 1764.0112 -7514.1352 298.9865 -9278.1463 -7481.8965 302.8924 -296.4433 -205.3418 30930.2101 -38.0745 18.4897
TCL: Running FEP window   7: Lambda1 0.6999999999999997 Lambda2 0.6499999999999997 [dLambda -0.050000000000000044]
TCL: Setting parameter firsttimestep to 0
TCL: Setting parameter alchLambda to 0.6999999999999997
Info: NONBONDED TABLE R-SQUARED SPACING: 0.0625
Info: NONBONDED TABLE SIZE: 705 POINTS
TCL: Setting parameter alchLambda2 to 0.6499999999999997
Info: NONBONDED TABLE R-SQUARED SPACING: 0.0625
Info: NONBONDED TABLE SIZE: 705 POINTS
TCL: Running for 1500000 steps
ETITLE: TS BOND ANGLE DIHED IMPRP ELECT VDW BOUNDARY MISC KINETIC TOTAL TEMP POTENTIAL TOTALAVG TEMPAVG PRESSURE GPRESSURE VOLUME PRESSAVG GPRESSAVG
ENERGY: 0 4.3327 15.7787 26.5734 0.0000 -10759.7964 1437.4948 0.0000 0.0000 1763.0987 -7512.5180 298.8318 -9275.6167 -7512.5180 298.8318 -291.2069 -215.6454 30930.2101 -291.2069 -215.6454
ENERGY: 300000 2.5263 10.1789 31.3456 0.0000 -10637.7210 1386.4811 0.0000 0.0000 1787.8397 -7419.3495 303.0252 -9207.1892 -7462.6179 299.0585 10.1278 14.9069 30651.3946 -137.4924 -85.2460
ENERGY: 600000 3.5754 15.6071 30.4017 0.0000 -10756.5654 1397.8819 0.0000 0.0000 1792.3450 -7516.7544 303.7888 -9309.0994 -7479.6407 298.9831 -545.0810 -471.5365 30729.2452 -226.9075 -181.2774
ENERGY: 900000 5.5131 10.4868 27.2520 0.0000 -10702.3903 1427.5125 0.0000 0.0000 1738.4791 -7493.1466 294.6590 -9231.6258 -7492.7729 297.3179 -248.9355 -139.0836 30758.8698 -352.6197 -305.4719
ENERGY: 1200000 7.5877 18.7861 28.3878 0.0000 -10779.7356 1442.4841 0.0000 0.0000 1731.6531 -7550.8368 293.5020 -9282.4899 -7493.6776 297.3253 83.8663 209.8233 30371.4120 -325.4712 -266.6989
ENERGY: 1500000 3.3757 12.0442 22.4339 0.0000 -10758.7818 1437.8566 0.0000 0.0000 1825.9025 -7457.1690 309.4766 -9283.0714 -7492.8747 298.4329 3.6067 80.8195 30328.8725 -360.2440 -299.1563
TCL: Running FEP window   8: Lambda1 0.6499999999999997 Lambda2 0.5999999999999996 [dLambda -0.050000000000000044]
TCL: Setting parameter firsttimestep to 0
TCL: Setting parameter alchLambda to 0.6499999999999997
Info: NONBONDED TABLE R-SQUARED SPACING: 0.0625
Info: NONBONDED TABLE SIZE: 705 POINTS
TCL: Setting parameter alchLambda2 to 0.5999999999999996
Info: NONBONDED TABLE R-SQUARED SPACING: 0.0625
Info: NONBONDED TABLE SIZE: 705 POINTS
TCL: Running for 1500000 steps
ETITLE: TS BOND ANGLE DIHED IMPRP ELECT VDW BOUNDARY MISC KINETIC TOTAL TEMP POTENTIAL TOTALAVG TEMPAVG PRESSURE GPRESSURE VOLUME PRESSAVG GPRESSAVG
ENERGY: 0 3.3757 12.0442 22.4339 0.0000 -10756.5844 1438.3565 0.0000 0.0000 1825.0091 -7455.3649 309.3251 -9280.3740 -7455.3649 309.3251 -10.2760 73.8927 30328.8725 -10.2760 73.8927
ENERGY: 300000 4.2418 12.0307 26.5036 0.0000 -10738.8422 1439.3187 0.0000 0.0000 1769.8582 -7486.8891 299.9775 -9256.7473 -7493.6387 302.2419 11.6470 86.5114 30506.0344 -137.0499 -63.7443
ENERGY: 600000 3.7294 14.5541 28.0213 0.0000 -10875.3036 1526.5852 0.0000 0.0000 1782.4733 -7519.9403 302.1157 -9302.4136 -7485.4748 301.6481 808.7047 975.7877 30125.2644 -141.9384 -49.0275
ENERGY: 900000 5.2247 14.2969 28.2340 0.0000 -10687.0818 1407.6972 0.0000 0.0000 1770.1140 -7461.5150 300.0208 -9231.6290 -7493.2357 298.9650 -361.5130 -300.4085 31161.5671 -121.5895 -46.2730
ENERGY: 1200000 8.8650 14.4010 27.0305 0.0000 -10763.3973 1435.7367 0.0000 0.0000 1768.7358 -7508.6283 299.7872 -9277.3641 -7486.2425 299.5681 -119.7881 -35.4151 30329.3101 -229.7039 -156.4045
ENERGY: 1500000 7.8280 9.6353 26.7818 0.0000 -10772.4010 1447.8048 0.0000 0.0000 1705.7299 -7574.6212 289.1082 -9280.3511 -7493.6169 299.5277 -33.3264 55.0139 30914.0388 -192.8566 -119.4120
TCL: Running FEP window   9: Lambda1 0.5999999999999996 Lambda2 0.5499999999999996 [dLambda -0.050000000000000044]
TCL: Setting parameter firsttimestep to 0
TCL: Setting parameter alchLambda to 0.5999999999999996
Info: NONBONDED TABLE R-SQUARED SPACING: 0.0625
Info: NONBONDED TABLE SIZE: 705 POINTS
TCL: Setting parameter alchLambda2 to 0.5499999999999996
Info: NONBONDED TABLE R-SQUARED SPACING: 0.0625
Info: NONBONDED TABLE SIZE: 705 POINTS
TCL: Running for 1500000 steps
ETITLE: TS BOND ANGLE DIHED IMPRP ELECT VDW BOUNDARY MISC KINETIC TOTAL TEMP POTENTIAL TOTALAVG TEMPAVG PRESSURE GPRESSURE VOLUME PRESSAVG GPRESSAVG
ENERGY: 0 7.8280 9.6353 26.7818 0.0000 -10770.0998 1448.5156 0.0000 0.0000 1704.8413 -7572.4978 288.9576 -9277.3391 -7572.4978 288.9576 -27.1392 53.7341 30914.0388 -27.1392 53.7341
ENERGY: 300000 8.2453 14.8556 27.8243 0.0000 -10649.8792 1351.0035 0.0000 0.0000 1713.3749 -7534.5757 290.4040 -9247.9506 -7499.7546 294.3981 -388.8400 -309.2017 30313.9810 -136.7659 -64.0360
ENERGY: 600000 4.4559 8.7136 29.1746 0.0000 -10662.1302 1407.4220 0.0000 0.0000 1792.5932 -7419.7709 303.8309 -9212.3641 -7489.2881 297.3453 -138.4133 -55.5693 30794.2420 -144.9578 -78.0460
ENERGY: 900000 8.9777 26.9408 22.4953 0.0000 -10772.5418 1489.9470 0.0000 0.0000 1827.2265 -7396.9544 309.7010 -9224.1810 -7480.6427 299.0793 482.8762 549.9409 30629.4544 -103.3103 -33.3215
ENERGY: 1200000 9.4213 12.9504 26.4131 0.0000 -10794.6058 1499.3234 0.0000 0.0000 1788.1295 -7458.3681 303.0743 -9246.4975 -7487.6015 299.3083 583.9639 667.9961 30440.6892 -107.9028 -35.9549
ENERGY: 1500000 7.2947 16.9214 25.6648 0.0000 -10577.8805 1348.6303 0.0000 0.0000 1813.9304 -7365.4389 307.4474 -9179.3693 -7475.7789 299.7468 -686.0027 -692.7765 31197.8055 -119.5746 -57.9783
TCL: Running FEP window  10: Lambda1 0.5499999999999996 Lambda2 0.4999999999999996 [dLambda -0.04999999999999999]
TCL: Setting parameter firsttimestep to 0
TCL: Setting parameter alchLambda to 0.5499999999999996
Info: NONBONDED TABLE R-SQUARED SPACING: 0.0625
Info: NONBONDED TABLE SIZE: 705 POINTS
TCL: Setting parameter alchLambda2 to 0.4999999999999996
Info: NONBONDED TABLE R-SQUARED SPACING: 0.0625
Info: NONBONDED TABLE SIZE: 705 POINTS
TCL: Running for 1500000 steps
ETITLE: TS BOND ANGLE DIHED IMPRP ELECT VDW BOUNDARY MISC KINETIC TOTAL TEMP POTENTIAL TOTALAVG TEMPAVG PRESSURE GPRESSURE VOLUME PRESSAVG GPRESSAVG
ENERGY: 0 7.2947 16.9214 25.6648 0.0000 -10576.1696 1349.1415 0.0000 0.0000 1813.0717 -7364.0755 307.3019 -9177.1473 -7364.0755 307.3019 -771.2028 -697.4483 31197.8055 -771.2028 -697.4483
ENERGY: 300000 7.9677 18.3886 28.6428 0.0000 -10597.1493 1379.8879 0.0000 0.0000 1735.2932 -7426.9692 294.1190 -9162.2624 -7474.1227 303.2623 -332.5352 -231.6510 30554.1817 -97.0401 13.0253
ENERGY: 600000 7.2581 11.3460 26.5186 0.0000 -10860.9532 1652.4913 0.0000 0.0000 1762.0280 -7401.3112 298.6503 -9163.3392 -7433.5826 303.2417 2092.0494 2132.5461 30421.4292 231.3226 309.2321
ENERGY: 900000 3.9684 13.3827 25.5575 0.0000 -10789.8637 1439.2214 0.0000 0.0000 1750.9522 -7556.7816 296.7731 -9307.7337 -7454.0446 301.3698 -102.6545 -102.5985 30432.3613 136.0209 198.7637
ENERGY: 1200000 9.4151 19.9143 27.0925 0.0000 -10787.7386 1458.2375 0.0000 0.0000 1769.4711 -7503.6081 299.9119 -9273.0792 -7459.9077 301.1145 278.3421 387.9227 30725.9363 83.3123 147.9074
ENERGY: 1500000 11.6045 15.3900 27.8480 0.0000 -10697.4346 1421.5326 0.0000 0.0000 1785.7780 -7435.2815 302.6758 -9221.0595 -7470.4736 301.1243 -287.1417 -201.4239 30826.7061 34.5723 100.0400
TCL: Running FEP window  11: Lambda1 0.4999999999999996 Lambda2 0.4499999999999996 [dLambda -0.04999999999999999]
TCL: Setting parameter firsttimestep to 0
TCL: Setting parameter alchLambda to 0.4999999999999996
Info: NONBONDED TABLE R-SQUARED SPACING: 0.0625
Info: NONBONDED TABLE SIZE: 705 POINTS
TCL: Setting parameter alchLambda2 to 0.4499999999999996
Info: NONBONDED TABLE R-SQUARED SPACING: 0.0625
Info: NONBONDED TABLE SIZE: 705 POINTS
TCL: Running for 1500000 steps
ETITLE: TS BOND ANGLE DIHED IMPRP ELECT VDW BOUNDARY MISC KINETIC TOTAL TEMP POTENTIAL TOTALAVG TEMPAVG PRESSURE GPRESSURE VOLUME PRESSAVG GPRESSAVG
ENERGY: 0 11.6045 15.3900 27.8480 0.0000 -10697.8677 1422.3981 0.0000 0.0000 1784.8918 -7435.7354 302.5256 -9220.6272 -7435.7354 302.5256 -294.9389 -207.0356 30826.7061 -294.9389 -207.0356
ENERGY: 300000 7.0492 13.5573 23.1646 0.0000 -10565.6564 1280.3432 0.0000 0.0000 1745.8377 -7495.7044 295.9062 -9241.5421 -7479.7216 297.3309 -1298.1923 -1282.3967 30669.6216 -633.9481 -579.0377
ENERGY: 600000 6.5850 12.4405 24.3313 0.0000 -10750.2475 1398.3987 0.0000 0.0000 1734.4558 -7574.0361 293.9771 -9308.4919 -7503.3908 297.7634 -417.7725 -380.3808 30252.9063 -605.6626 -549.6548
ENERGY: 900000 8.3250 14.2696 26.4468 0.0000 -10642.0376 1366.2928 0.0000 0.0000 1803.7873 -7422.9162 305.7282 -9226.7035 -7500.1311 298.2933 -224.0346 -109.4480 30264.0165 -488.1915 -429.3487
ENERGY: 1200000 8.0290 12.8712 27.7333 0.0000 -10693.8886 1439.8317 0.0000 0.0000 1806.6949 -7398.7285 306.2210 -9205.4235 -7494.2529 298.2172 241.7073 295.1727 30389.9382 -431.5527 -367.6886
ENERGY: 1500000 4.1051 14.1630 29.5363 0.0000 -10800.6203 1492.8977 0.0000 0.0000 1773.1025 -7486.8156 300.5274 -9259.9181 -7485.7372 298.3575 688.7529 702.9598 30304.5106 -378.4892 -312.9959
TCL: Running FEP window  12: Lambda1 0.4499999999999996 Lambda2 0.39999999999999963 [dLambda -0.04999999999999999]
TCL: Setting parameter firsttimestep to 0
TCL: Setting parameter alchLambda to 0.4499999999999996
Info: NONBONDED TABLE R-SQUARED SPACING: 0.0625
Info: NONBONDED TABLE SIZE: 705 POINTS
TCL: Setting parameter alchLambda2 to 0.39999999999999963
Info: NONBONDED TABLE R-SQUARED SPACING: 0.0625
Info: NONBONDED TABLE SIZE: 705 POINTS
TCL: Running for 1500000 steps
ETITLE: TS BOND ANGLE DIHED IMPRP ELECT VDW BOUNDARY MISC KINETIC TOTAL TEMP POTENTIAL TOTALAVG TEMPAVG PRESSURE GPRESSURE VOLUME PRESSAVG GPRESSAVG
ENERGY: 0 4.1051 14.1630 29.5363 0.0000 -10800.6199 1491.4440 0.0000 0.0000 1772.2442 -7489.1273 300.3819 -9261.3715 -7489.1273 300.3819 603.9031 680.9483 30304.5106 603.9031 680.9483
ENERGY: 300000 8.3848 11.8094 26.4380 0.0000 -10666.0370 1405.6690 0.0000 0.0000 1751.3716 -7462.3641 296.8442 -9213.7357 -7423.5945 299.1772 -265.7840 -175.5753 30104.9257 337.6798 420.6449
ENERGY: 600000 8.8317 15.8597 27.6718 0.0000 -10711.4908 1413.2083 0.0000 0.0000 1812.1511 -7433.7681 307.1458 -9245.9193 -7439.0379 300.2709 -413.3360 -323.9084 30287.5003 11.0481 87.2497
ENERGY: 900000 5.0730 18.5918 25.7008 0.0000 -10769.5798 1481.4756 0.0000 0.0000 1743.7721 -7494.9666 295.5561 -9238.7387 -7453.9309 300.5673 413.5820 448.0201 30684.2153 28.4274 96.5349
ENERGY: 1200000 7.8336 14.4370 27.0106 0.0000 -10537.9157 1271.9694 0.0000 0.0000 1766.9277 -7449.7373 299.4808 -9216.6650 -7454.5091 300.1784 -1204.7262 -1106.4524 30589.0543 -168.4825 -97.9723
ENERGY: 1500000 7.4262 16.7096 24.7915 0.0000 -10625.4015 1378.1045 0.0000 0.0000 1808.9588 -7389.4108 306.6047 -9198.3696 -7446.6829 300.8919 -522.8960 -398.3547 30705.2370 -132.1224 -59.1501
TCL: Running FEP window  13: Lambda1 0.39999999999999963 Lambda2 0.34999999999999964 [dLambda -0.04999999999999999]
TCL: Setting parameter firsttimestep to 0
TCL: Setting parameter alchLambda to 0.39999999999999963
Info: NONBONDED TABLE R-SQUARED SPACING: 0.0625
Info: NONBONDED TABLE SIZE: 705 POINTS
TCL: Setting parameter alchLambda2 to 0.34999999999999964
Info: NONBONDED TABLE R-SQUARED SPACING: 0.0625
Info: NONBONDED TABLE SIZE: 705 POINTS
TCL: Running for 1500000 steps
ETITLE: TS BOND ANGLE DIHED IMPRP ELECT VDW BOUNDARY MISC KINETIC TOTAL TEMP POTENTIAL TOTALAVG TEMPAVG PRESSURE GPRESSURE VOLUME PRESSAVG GPRESSAVG
ENERGY: 0 7.4262 16.7096 24.7916 0.0000 -10625.4010 1378.8326 0.0000 0.0000 1808.1028 -7389.5382 306.4597 -9197.6410 -7389.5382 306.4597 -472.1249 -404.7254 30705.2370 -472.1249 -404.7254
ENERGY: 300000 6.4738 19.1481 26.1757 0.0000 -10685.8099 1445.8015 0.0000 0.0000 1782.9739 -7405.2368 302.2005 -9188.2108 -7435.3930 303.2222 408.6313 534.7946 30022.3657 54.6374 132.9938
ENERGY: 600000 6.5080 17.8283 27.0013 0.0000 -10774.1286 1481.2313 0.0000 0.0000 1683.1531 -7558.4066 285.2816 -9241.5597 -7484.3980 298.8920 135.3771 213.4852 30362.4481 233.6887 301.8503
ENERGY: 900000 7.4582 18.4852 28.2966 0.0000 -10653.0050 1444.0788 0.0000 0.0000 1787.2348 -7367.4513 302.9227 -9154.6861 -7471.0066 299.3805 607.6098 696.6646 30327.4665 279.3197 347.8434
ENERGY: 1200000 7.6759 8.6462 22.5923 0.0000 -10771.2220 1431.6495 0.0000 0.0000 1795.7891 -7504.8689 304.3726 -9300.6581 -7482.3770 299.6998 -34.7225 33.6187 30103.7650 229.4058 302.5701
ENERGY: 1500000 4.5221 15.0343 28.7394 0.0000 -10569.0572 1355.6155 0.0000 0.0000 1764.0197 -7401.1263 298.9879 -9165.1460 -7473.4166 300.1438 -405.7123 -391.0977 30343.6668 206.5812 274.2825
TCL: Running FEP window  14: Lambda1 0.34999999999999964 Lambda2 0.29999999999999966 [dLambda -0.04999999999999999]
TCL: Setting parameter firsttimestep to 0
TCL: Setting parameter alchLambda to 0.34999999999999964
Info: NONBONDED TABLE R-SQUARED SPACING: 0.0625
Info: NONBONDED TABLE SIZE: 705 POINTS
TCL: Setting parameter alchLambda2 to 0.29999999999999966
Info: NONBONDED TABLE R-SQUARED SPACING: 0.0625
Info: NONBONDED TABLE SIZE: 705 POINTS
TCL: Running for 1500000 steps
ETITLE: TS BOND ANGLE DIHED IMPRP ELECT VDW BOUNDARY MISC KINETIC TOTAL TEMP POTENTIAL TOTALAVG TEMPAVG PRESSURE GPRESSURE VOLUME PRESSAVG GPRESSAVG
ENERGY: 0 4.5221 15.0343 28.7393 0.0000 -10569.0589 1355.7169 0.0000 0.0000 1763.1467 -7401.8996 298.8399 -9165.0463 -7401.8996 298.8399 -487.7406 -402.7220 30343.6668 -487.7406 -402.7220
ENERGY: 300000 9.2494 16.0727 22.4683 0.0000 -10624.0483 1389.5896 0.0000 0.0000 1778.3968 -7408.2715 301.4247 -9186.6683 -7445.2459 299.4649 -96.6909 -40.7576 30405.7425 -57.5923 4.2856
ENERGY: 600000 9.8566 11.9241 23.3896 0.0000 -10731.3550 1415.8227 0.0000 0.0000 1806.8272 -7463.5348 306.2434 -9270.3619 -7463.4733 300.9888 -449.3018 -373.3034 30915.1623 -157.1254 -79.1391
ENERGY: 900000 5.5890 17.3539 30.8706 0.0000 -10630.9387 1340.9836 0.0000 0.0000 1752.6654 -7483.4762 297.0634 -9236.1416 -7473.5853 299.9536 -794.7840 -670.5808 30581.9571 -168.1211 -86.8833
ENERGY: 1200000 5.8420 20.2050 28.2493 0.0000 -10636.6654 1375.9030 0.0000 0.0000 1770.2609 -7436.2052 300.0457 -9206.4660 -7468.2348 299.3993 -637.5454 -547.0230 30888.8372 -157.7022 -80.5455
ENERGY: 1500000 10.8766 17.6261 27.0480 0.0000 -10746.1483 1489.0287 0.0000 0.0000 1837.3051 -7364.2637 311.4092 -9201.5688 -7467.9276 300.3971 211.1470 307.4729 30755.1454 -179.8967 -103.2177
TCL: Running FEP window  15: Lambda1 0.29999999999999966 Lambda2 0.24999999999999967 [dLambda -0.04999999999999999]
TCL: Setting parameter firsttimestep to 0
TCL: Setting parameter alchLambda to 0.29999999999999966
Info: NONBONDED TABLE R-SQUARED SPACING: 0.0625
Info: NONBONDED TABLE SIZE: 705 POINTS
TCL: Setting parameter alchLambda2 to 0.24999999999999967
Info: NONBONDED TABLE R-SQUARED SPACING: 0.0625
Info: NONBONDED TABLE SIZE: 705 POINTS
TCL: Running for 1500000 steps
ETITLE: TS BOND ANGLE DIHED IMPRP ELECT VDW BOUNDARY MISC KINETIC TOTAL TEMP POTENTIAL TOTALAVG TEMPAVG PRESSURE GPRESSURE VOLUME PRESSAVG GPRESSAVG
ENERGY: 0 10.8766 17.6261 27.0480 0.0000 -10746.1491 1489.5955 0.0000 0.0000 1836.4429 -7364.5599 311.2631 -9201.0028 -7364.5599 311.2631 217.1985 300.9432 30755.1454 217.1985 300.9432
ENERGY: 300000 5.9393 17.8052 22.6849 0.0000 -10716.0116 1452.4676 0.0000 0.0000 1761.7499 -7455.3647 298.6032 -9217.1145 -7439.4678 301.5195 80.4878 131.8796 30724.0331 -140.1119 -75.8112
ENERGY: 600000 7.1304 17.9671 29.8026 0.0000 -10856.2395 1419.9706 0.0000 0.0000 1781.8595 -7599.5093 302.0116 -9381.3688 -7457.6649 301.5690 -101.9153 -81.4680 29739.8989 -100.8191 -41.7409
ENERGY: 900000 4.0049 15.2276 29.0497 0.0000 -10679.7479 1415.2581 0.0000 0.0000 1802.2004 -7414.0071 305.4592 -9216.2075 -7448.3179 302.8029 67.0490 246.1709 30366.3517 -121.9067 -51.9251
ENERGY: 1200000 6.7592 14.7003 25.7976 0.0000 -10634.4316 1406.0183 0.0000 0.0000 1774.0142 -7407.1421 300.6819 -9181.1563 -7455.3839 301.6946 -120.1024 -39.4894 30526.9803 -64.1975 3.9625
ENERGY: 1500000 5.4492 13.7330 27.8066 0.0000 -10770.2791 1490.9924 0.0000 0.0000 1772.7186 -7459.5792 300.4623 -9232.2979 -7460.8841 301.1377 260.9653 380.6543 30247.3075 -52.6340 15.3840
TCL: Running FEP window  16: Lambda1 0.24999999999999967 Lambda2 0.19999999999999968 [dLambda -0.04999999999999999]
TCL: Setting parameter firsttimestep to 0
TCL: Setting parameter alchLambda to 0.24999999999999967
Info: NONBONDED TABLE R-SQUARED SPACING: 0.0625
Info: NONBONDED TABLE SIZE: 705 POINTS
TCL: Setting parameter alchLambda2 to 0.19999999999999968
Info: NONBONDED TABLE R-SQUARED SPACING: 0.0625
Info: NONBONDED TABLE SIZE: 705 POINTS
TCL: Running for 1500000 steps
ETITLE: TS BOND ANGLE DIHED IMPRP ELECT VDW BOUNDARY MISC KINETIC TOTAL TEMP POTENTIAL TOTALAVG TEMPAVG PRESSURE GPRESSURE VOLUME PRESSAVG GPRESSAVG
ENERGY: 0 5.4492 13.7330 27.8066 0.0000 -10770.2797 1490.8210 0.0000 0.0000 1771.8393 -7460.6306 300.3133 -9232.4699 -7460.6306 300.3133 271.4495 370.7183 30247.3075 271.4495 370.7183
ENERGY: 300000 6.0811 17.6501 30.0624 0.0000 -10795.8549 1463.2076 0.0000 0.0000 1765.2077 -7513.6459 299.1893 -9278.8536 -7521.9159 297.6466 204.0207 321.6308 30070.2849 225.8690 301.0792
ENERGY: 600000 4.5852 12.3693 26.4156 0.0000 -10704.1122 1346.0067 0.0000 0.0000 1709.6767 -7605.0587 289.7772 -9314.7354 -7522.8754 296.7122 -909.4065 -900.8193 30397.7320 -28.5737 37.8545
ENERGY: 900000 4.7244 20.2944 26.8515 0.0000 -10709.2685 1430.6344 0.0000 0.0000 1712.5464 -7514.2174 290.2636 -9226.7638 -7510.0334 297.0542 -219.4115 -189.9540 30321.0057 -52.0438 3.9475
ENERGY: 1200000 4.6227 9.7364 27.2487 0.0000 -10703.5387 1430.2100 0.0000 0.0000 1768.5615 -7463.1594 299.7577 -9231.7209 -7503.5068 297.3008 15.2717 78.7911 30487.9172 -80.9613 -22.7439
ENERGY: 1500000 6.3643 12.2151 31.3764 0.0000 -10684.9512 1405.9074 0.0000 0.0000 1745.3672 -7483.7208 295.8265 -9229.0881 -7494.0806 297.8565 -211.4561 -134.2975 30568.1540 -95.8709 -38.2369
TCL: Running FEP window  17: Lambda1 0.19999999999999968 Lambda2 0.1499999999999997 [dLambda -0.04999999999999999]
TCL: Setting parameter firsttimestep to 0
TCL: Setting parameter alchLambda to 0.19999999999999968
Info: NONBONDED TABLE R-SQUARED SPACING: 0.0625
Info: NONBONDED TABLE SIZE: 705 POINTS
TCL: Setting parameter alchLambda2 to 0.1499999999999997
Info: NONBONDED TABLE R-SQUARED SPACING: 0.0625
Info: NONBONDED TABLE SIZE: 705 POINTS
TCL: Running for 1500000 steps
ETITLE: TS BOND ANGLE DIHED IMPRP ELECT VDW BOUNDARY MISC KINETIC TOTAL TEMP POTENTIAL TOTALAVG TEMPAVG PRESSURE GPRESSURE VOLUME PRESSAVG GPRESSAVG
ENERGY: 0 6.3643 12.2151 31.3764 0.0000 -10684.9506 1406.0267 0.0000 0.0000 1744.5156 -7484.4526 295.6821 -9228.9682 -7484.4526 295.6821 -221.0921 -142.1013 30568.1540 -221.0921 -142.1013
ENERGY: 300000 5.2958 13.9840 28.2995 0.0000 -10803.3750 1496.8196 0.0000 0.0000 1779.7478 -7479.2283 301.6537 -9258.9761 -7467.7540 300.9425 673.1272 735.6393 29680.3271 158.2166 222.7734
ENERGY: 600000 6.8528 13.4230 28.0476 0.0000 -10694.3161 1399.6612 0.0000 0.0000 1716.3679 -7529.9636 290.9113 -9246.3315 -7472.1724 299.1215 -502.5036 -373.9159 30155.7893 49.3230 121.6447
ENERGY: 900000 4.0302 15.2983 30.2575 0.0000 -10765.9271 1420.7835 0.0000 0.0000 1761.9811 -7533.5764 298.6424 -9295.5575 -7476.6957 300.1655 -30.3354 -31.2721 30187.2941 56.2658 118.9973
ENERGY: 1200000 8.5047 14.6647 31.7738 0.0000 -10665.3964 1392.2073 0.0000 0.0000 1765.9342 -7452.3118 299.3124 -9218.2460 -7470.1555 300.5819 -462.8949 -406.3124 30275.0473 -14.1213 45.6898
ENERGY: 1500000 10.1394 18.1597 28.1640 0.0000 -10897.6203 1521.6361 0.0000 0.0000 1761.7861 -7557.7349 298.6093 -9319.5210 -7479.8549 299.7556 593.7275 634.2206 29750.1199 35.4851 89.4502
TCL: Running FEP window  18: Lambda1 0.1499999999999997 Lambda2 0.09999999999999969 [dLambda -0.05 ]
TCL: Setting parameter firsttimestep to 0
TCL: Setting parameter alchLambda to 0.1499999999999997
Info: NONBONDED TABLE R-SQUARED SPACING: 0.0625
Info: NONBONDED TABLE SIZE: 705 POINTS
TCL: Setting parameter alchLambda2 to 0.09999999999999969
Info: NONBONDED TABLE R-SQUARED SPACING: 0.0625
Info: NONBONDED TABLE SIZE: 705 POINTS
TCL: Running for 1500000 steps
ETITLE: TS BOND ANGLE DIHED IMPRP ELECT VDW BOUNDARY MISC KINETIC TOTAL TEMP POTENTIAL TOTALAVG TEMPAVG PRESSURE GPRESSURE VOLUME PRESSAVG GPRESSAVG
ENERGY: 0 10.1394 18.1597 28.1640 0.0000 -10897.6196 1520.9027 0.0000 0.0000 1760.9037 -7559.3502 298.4598 -9320.2538 -7559.3502 298.4598 539.3829 620.1983 29750.1199 539.3829 620.1983
ENERGY: 300000 7.1040 14.7762 28.1985 0.0000 -10763.1677 1417.8099 0.0000 0.0000 1782.8342 -7512.4449 302.1768 -9295.2791 -7477.8299 299.3450 -259.3033 -186.2515 30384.6728 -143.6633 -83.6140
ENERGY: 600000 4.7270 13.9947 27.7487 0.0000 -10745.6954 1452.9823 0.0000 0.0000 1790.6715 -7455.5712 303.5052 -9246.2427 -7484.0494 299.6326 271.3161 323.0168 30391.1323 60.5063 116.5009
ENERGY: 900000 7.5542 20.3897 23.7002 0.0000 -10640.6992 1349.1995 0.0000 0.0000 1761.5348 -7478.3208 298.5667 -9239.8555 -7486.2234 301.0663 -938.8588 -924.5232 30700.4483 -100.1651 -50.8660
ENERGY: 1200000 6.2636 11.2117 23.8896 0.0000 -10698.6989 1417.0769 0.0000 0.0000 1777.4186 -7462.8385 301.2589 -9240.2571 -7477.6866 300.9913 23.2519 59.8372 30081.6318 -135.6494 -86.1241
ENERGY: 1500000 8.9591 17.3955 26.0307 0.0000 -10750.0861 1411.9069 0.0000 0.0000 1772.2250 -7513.5688 300.3786 -9285.7938 -7476.4482 301.3446 -468.3259 -441.5502 30486.8322 -170.0060 -119.4492
TCL: Running FEP window  19: Lambda1 0.09999999999999969 Lambda2 0.049999999999999684 [dLambda -0.05 ]
TCL: Setting parameter firsttimestep to 0
TCL: Setting parameter alchLambda to 0.09999999999999969
Info: NONBONDED TABLE R-SQUARED SPACING: 0.0625
Info: NONBONDED TABLE SIZE: 705 POINTS
TCL: Setting parameter alchLambda2 to 0.049999999999999684
Info: NONBONDED TABLE R-SQUARED SPACING: 0.0625
Info: NONBONDED TABLE SIZE: 705 POINTS
TCL: Running for 1500000 steps
ETITLE: TS BOND ANGLE DIHED IMPRP ELECT VDW BOUNDARY MISC KINETIC TOTAL TEMP POTENTIAL TOTALAVG TEMPAVG PRESSURE GPRESSURE VOLUME PRESSAVG GPRESSAVG
ENERGY: 0 8.9591 17.3955 26.0307 0.0000 -10750.0867 1411.6447 0.0000 0.0000 1771.3003 -7514.7564 300.2219 -9286.0567 -7514.7564 300.2219 -519.3699 -451.2145 30486.8322 -519.3699 -451.2145
ENERGY: 300000 3.6206 14.8524 23.4768 0.0000 -10703.9568 1407.7100 0.0000 0.0000 1783.2237 -7471.0733 302.2428 -9254.2970 -7465.1045 302.4463 -252.4006 -115.1189 30059.1408 -607.9153 -538.0731
ENERGY: 600000 8.0271 18.3388 24.3995 0.0000 -10806.1534 1443.9283 0.0000 0.0000 1756.6925 -7554.7671 297.7460 -9311.4596 -7489.5093 301.8299 -91.5524 -77.4305 30064.6380 -405.2624 -343.0581
ENERGY: 900000 6.5198 16.7963 26.8854 0.0000 -10579.0580 1334.0972 0.0000 0.0000 1753.1030 -7441.6563 297.1376 -9194.7593 -7480.3086 300.8699 -906.1909 -807.8055 30630.3384 -438.4237 -374.0437
ENERGY: 1200000 6.8815 12.6307 29.2662 0.0000 -10667.7696 1401.9591 0.0000 0.0000 1722.2618 -7494.7703 291.9103 -9217.0321 -7486.1661 300.3027 -412.3541 -353.2757 30561.1514 -337.4871 -276.6879
ENERGY: 1500000 5.3341 13.7706 26.0146 0.0000 -10694.1725 1419.9532 0.0000 0.0000 1743.8944 -7485.2056 295.5768 -9229.1000 -7487.3459 299.8263 -278.8809 -181.3915 30364.9853 -200.8508 -141.3699
TCL: Running FEP window  20: Lambda1 0.049999999999999684 Lambda2 0.0    [dLambda -0.049999999999999684]
TCL: Setting parameter firsttimestep to 0
TCL: Setting parameter alchLambda to 0.049999999999999684
Info: NONBONDED TABLE R-SQUARED SPACING: 0.0625
Info: NONBONDED TABLE SIZE: 705 POINTS
TCL: Setting parameter alchLambda2 to 0.0
Info: NONBONDED TABLE R-SQUARED SPACING: 0.0625
Info: NONBONDED TABLE SIZE: 705 POINTS
TCL: Running for 1500000 steps
ETITLE: TS BOND ANGLE DIHED IMPRP ELECT VDW BOUNDARY MISC KINETIC TOTAL TEMP POTENTIAL TOTALAVG TEMPAVG PRESSURE GPRESSURE VOLUME PRESSAVG GPRESSAVG
ENERGY: 0 5.3341 13.7707 26.0146 0.0000 -10694.1738 1419.8259 0.0000 0.0000 1743.0159 -7486.2128 295.4279 -9229.2286 -7486.2128 295.4279 -281.2877 -186.8987 30364.9853 -281.2877 -186.8987
ENERGY: 300000 8.1344 21.1088 24.3380 0.0000 -10682.4945 1376.6765 0.0000 0.0000 1781.8344 -7470.4024 302.0074 -9252.2368 -7462.0864 297.2024 -769.9105 -724.3749 30433.6566 -521.2876 -429.9120
ENERGY: 600000 4.7303 13.3083 26.8431 0.0000 -10820.0880 1425.0650 0.0000 0.0000 1776.5654 -7573.5758 301.1143 -9350.1412 -7469.9529 298.5950 67.5519 88.9442 29669.5085 -297.1315 -213.0236
ENERGY: 900000 4.7581 12.2299 28.7080 0.0000 -10846.8840 1484.9840 0.0000 0.0000 1755.8762 -7560.3278 297.6076 -9316.2040 -7478.5383 298.7125 23.1953 163.4605 29963.9060 -225.9963 -139.1289
ENERGY: 1200000 5.5622 11.6464 27.0706 0.0000 -10898.6667 1500.1873 0.0000 0.0000 1802.1614 -7552.0388 305.4526 -9354.2002 -7485.7156 299.6332 221.1097 286.1815 29980.4864 -154.6827 -74.1708
ENERGY: 1500000 7.7512 10.2530 26.7722 0.0000 -10687.6050 1434.4732 0.0000 0.0000 1778.2589 -7430.0966 301.4013 -9208.3554 -7473.0257 299.2616 -88.8209 -16.0268 30359.9515 -176.1175 -95.8742
TCL: Exiting due to exit command.
