Info: SIMULATION PARAMETERS:
Info: TIMESTEP               2
Info: NUMBER OF STEPS        0
Info: STEPS PER CYCLE        10
Info: PERIODIC CELL BASIS 1  28.9616 0 0
Info: PERIODIC CELL BASIS 2  0 34.6476 0
Info: PERIODIC CELL BASIS 3  0 0 30.3879
Info: PERIODIC CELL CENTER   0 0 0
Info: WRAPPING WATERS AROUND PERIODIC BOUNDARIES ON OUTPUT.
Info: WRAPPING ALL CLUSTERS AROUND PERIODIC BOUNDARIES ON OUTPUT.
Info: FIRST LDB TIMESTEP     50
Info: LAST LDB TIMESTEP     -1
Info: HOM BACKGROUND SCALING 1
Info: PME BACKGROUND SCALING 1
Info: MIN ATOMS PER PATCH    40
Info: EMPTY PATCH LOAD       40 ATOMS
Info: VELOCITY FILE          mobley_2636578_equil.vel
Info: CENTER OF MASS MOVING INITIALLY? NO
Info: DIELECTRIC             1
Info: EXCLUDE                SCALED ONE-FOUR
Info: 1-4 ELECTROSTATICS SCALED BY 0.833333
Info: MODIFIED 1-4 VDW PARAMETERS WILL BE USED
Info: DCD FILENAME           mobley_2636578_prod.dcd
Info: DCD FREQUENCY          100000
Info: DCD FIRST STEP         100000
Info: DCD FILE WILL CONTAIN UNIT CELL DATA
Info: XST FILENAME           mobley_2636578_prod.xst
Info: XST FREQUENCY          100000
Info: NO VELOCITY DCD OUTPUT
Info: NO FORCE DCD OUTPUT
Info: OUTPUT FILENAME        mobley_2636578_prod
Info: BINARY OUTPUT FILES WILL BE USED
Info: RESTART FILENAME       mobley_2636578_prod.restart
Info: RESTART FREQUENCY      100000
Info: BINARY RESTART FILES WILL BE USED
Info: CUTOFF                 9
Info: PAIRLIST DISTANCE      11
Info: PAIRLIST SHRINK RATE   0.01
Info: PAIRLIST GROW RATE     0.01
Info: PAIRLIST TRIGGER       0.3
Info: PAIRLISTS PER CYCLE    2
Info: PAIRLISTS ENABLED
Info: MARGIN                 2
Info: HYDROGEN GROUP CUTOFF  2.5
Info: PATCH DIMENSION        15.5
Info: ENERGY OUTPUT STEPS    100000
Info: ENERGY EVALUATION STEPS    100000
Info: OUTPUT ENERGY PRECISION 4
Info: CROSSTERM ENERGY INCLUDED IN DIHEDRAL
Info: TIMING OUTPUT STEPS    1000000
Info: PRESSURE OUTPUT STEPS  100000
Info: ALCHEMICAL FEP ON
Info: FEP CURRENT LAMBDA VALUE     0
Info: FEP COMPARISON LAMBDA VALUE  0.05
Info: FEP INTRA-ALCHEMICAL NON-BONDED INTERACTIONS WILL BE RETAINED
Info: FEP INTRA-ALCHEMICAL BONDED INTERACTIONS WILL BE RETAINED
Info: FEP VDW SHIFTING COEFFICIENT 5
Info: FEP ELEC. ACTIVE FOR ANNIHILATED PARTICLES BETWEEN LAMBDA = 0 AND LAMBDA = 0.5
Info: FEP ELEC. ACTIVE FOR EXNIHILATED PARTICLES BETWEEN LAMBDA = 0.5 AND LAMBDA = 1
Info: FEP VDW ACTIVE FOR ANNIHILATED PARTICLES BETWEEN LAMBDA = 0 AND LAMBDA = 1
Info: FEP VDW ACTIVE FOR EXNIHILATED PARTICLES BETWEEN LAMBDA = 0 AND LAMBDA = 1
Info: FEP BOND ACTIVE FOR ANNIHILATED PARTICLES BETWEEN LAMBDA = 1 AND LAMBDA = 1
Info: FEP BOND ACTIVE FOR EXNIHILATED PARTICLES BETWEEN LAMBDA = 0 AND LAMBDA = 0
Info: LANGEVIN DYNAMICS ACTIVE
Info: LANGEVIN TEMPERATURE   300
Info: LANGEVIN USING BBK INTEGRATOR
Info: LANGEVIN DAMPING COEFFICIENT IS 1 INVERSE PS
Info: LANGEVIN DYNAMICS APPLIED TO HYDROGENS
Info: LANGEVIN PISTON PRESSURE CONTROL ACTIVE
Info:        TARGET PRESSURE IS 1.01325 BAR
Info:     OSCILLATION PERIOD IS 50 FS
Info:             DECAY TIME IS 25 FS
Info:     PISTON TEMPERATURE IS 300 K
Info:       PRESSURE CONTROL IS GROUP-BASED
Info:    INITIAL STRAIN RATE IS -0.000344021 -0.000344021 -0.000344021
Info:       CELL FLUCTUATION IS ISOTROPIC
Info: PARTICLE MESH EWALD (PME) ACTIVE
Info: PME TOLERANCE               1e-06
Info: PME EWALD COEFFICIENT       0.348832
Info: PME INTERPOLATION ORDER     4
Info: PME GRID DIMENSIONS         32 36 32
Info: PME MAXIMUM GRID SPACING    1
Info: PME CALCULATION WILL BE PERFORMED ON GPU
Info: FULL ELECTROSTATIC EVALUATION FREQUENCY      2
Info: USING VERLET I (r-RESPA) MTS SCHEME.
Info: C1 SPLITTING OF LONG RANGE ELECTROSTATICS
Info: PLACING ATOMS IN PATCHES BY HYDROGEN GROUPS
Info: RIGID BONDS TO HYDROGEN : ALL
Info:         ERROR TOLERANCE : 1e-08
Info:          MAX ITERATIONS : 100
Info: RIGID WATER USING SETTLE ALGORITHM
Info: RANDOM NUMBER SEED     1744048025
Info: USE HYDROGEN BONDS?    NO
Info: Using AMBER format force field!
Info: AMBER PARM FILE        mobley_2636578.prmtop
Info: COORDINATE PDB         mobley_2636578.pdb
Info: Exclusions will be read from PARM file!
Info: SCNB (VDW SCALING)     2
Info: USING ARITHMETIC MEAN TO COMBINE L-J SIGMA PARAMETERS
Info: BINARY COORDINATES     mobley_2636578_equil.coor
Info: SUMMARY OF PARAMETERS:
Info: 8 BONDS
Info: 10 ANGLES
Info:   10 HARMONIC
Info:   0 COSINE-BASED
Info: 5 DIHEDRAL
Info: 0 IMPROPER
Info: 0 CROSSTERM
Info: 0 VDW
Info: 36 VDW_PAIRS
Info: 0 NBTHOLE_PAIRS
Info: To read alchdata from file: mobley_2636578.pdb
Info: To read alchflag data from column: 5
Info: STRUCTURE SUMMARY:
Info: 2927 ATOMS
Info: 2926 BONDS
Info: 26 ANGLES
Info: 32 DIHEDRALS
Info: 0 IMPROPERS
Info: 0 CROSSTERMS
Info: 2980 EXCLUSIONS
Info: 2916 RIGID BONDS
Info: ALCH: 0 ATOMS TO DISAPPEAR IN FINAL STATE
Info: ALCH: 17 ATOMS TO APPEAR IN FINAL STATE
Info: 5865 DEGREES OF FREEDOM
Info: 981 HYDROGEN GROUPS
Info: 3 ATOMS IN LARGEST HYDROGEN GROUP
Info: 981 MIGRATION GROUPS
Info: 3 ATOMS IN LARGEST MIGRATION GROUP
Info: TOTAL MASS = 17641.6 amu
Info: TOTAL CHARGE = -3.72529e-08 e
Info: MASS DENSITY = 0.96073 g/cm^3
Info: ATOM DENSITY = 0.0959901 atoms/A^3
Info: ADDED 0 IMPLICIT EXCLUSIONS
Info: NONBONDED TABLE R-SQUARED SPACING: 0.0625
Info: NONBONDED TABLE SIZE: 705 POINTS
Info: REMOVING COM VELOCITY 0.0512712 -0.0686949 0.346106
Info: Use 3D box decompostion in PME FFT.
Info: Updated CUDA force table with 4096 elements.
Info: Updated CUDA LJ table with 8 x 8 elements.
Info: Found 17 unique exclusion lists needing 44 bytes
TCL: Running for 1500000 steps
ETITLE: TS BOND ANGLE DIHED IMPRP ELECT VDW BOUNDARY MISC KINETIC TOTAL TEMP POTENTIAL TOTALAVG TEMPAVG PRESSURE GPRESSURE VOLUME PRESSAVG GPRESSAVG
ENERGY: 0 5.0188 7.2127 2.3338 0.0000 -10740.1900 1513.2306 0.0000 0.0000 1764.2091 -7448.1849 302.7418 -9212.3940 -7448.1849 302.7418 272.0609 359.4375 30492.7169 272.0609 359.4375
ENERGY: 300000 2.2612 5.9493 3.2784 0.0000 -10607.6652 1387.9285 0.0000 0.0000 1781.1040 -7427.1438 305.6410 -9208.2478 -7409.0955 303.1799 -631.2502 -493.9425 29917.6404 64.5653 153.1079
ENERGY: 600000 4.0665 9.6526 2.4405 0.0000 -10659.4566 1460.1209 0.0000 0.0000 1679.9182 -7503.2580 288.2773 -9183.1762 -7428.6066 300.8890 238.0706 282.1049 29805.9682 9.7054 95.4322
ENERGY: 900000 1.4424 8.2627 4.3403 0.0000 -10658.0489 1436.5943 0.0000 0.0000 1734.5405 -7472.8686 297.6506 -9207.4092 -7425.7432 300.7611 -223.9217 -86.6679 29990.4178 -108.6456 -17.6532
ENERGY: 1200000 3.2764 7.1992 4.9428 0.0000 -10542.2217 1416.4022 0.0000 0.0000 1723.7075 -7386.6935 295.7917 -9110.4010 -7423.1616 300.6736 -22.2271 87.5812 30225.9355 -2.7904 87.0700
ENERGY: 1500000 6.0561 5.6716 3.7958 0.0000 -10620.7733 1424.9008 0.0000 0.0000 1780.8418 -7399.5072 305.5960 -9180.3490 -7420.8072 301.2721 -474.6091 -386.8358 30248.5953 -46.9793 35.7681
TCL: Running FEP window   2: Lambda1 0.05   Lambda2 0.1    [dLambda 0.05  ]
TCL: Setting parameter firsttimestep to 0
TCL: Setting parameter alchLambda to 0.05
Info: NONBONDED TABLE R-SQUARED SPACING: 0.0625
Info: NONBONDED TABLE SIZE: 705 POINTS
TCL: Setting parameter alchLambda2 to 0.1
Info: NONBONDED TABLE R-SQUARED SPACING: 0.0625
Info: NONBONDED TABLE SIZE: 705 POINTS
TCL: Running for 1500000 steps
ETITLE: TS BOND ANGLE DIHED IMPRP ELECT VDW BOUNDARY MISC KINETIC TOTAL TEMP POTENTIAL TOTALAVG TEMPAVG PRESSURE GPRESSURE VOLUME PRESSAVG GPRESSAVG
ENERGY: 0 6.0561 5.6716 3.7958 0.0000 -10620.7747 1428.0831 0.0000 0.0000 1779.9792 -7397.1889 305.4480 -9177.1681 -7397.1889 305.4480 -468.2371 -380.8748 30248.5953 -468.2371 -380.8748
ENERGY: 300000 1.2844 8.3950 3.1055 0.0000 -10565.4451 1444.7758 0.0000 0.0000 1755.3578 -7352.5265 301.2229 -9107.8844 -7413.3014 300.1331 155.2624 293.1973 30152.4699 -195.0506 -112.3161
ENERGY: 600000 2.3626 9.2660 1.9857 0.0000 -10609.5935 1449.4077 0.0000 0.0000 1747.1641 -7399.4074 299.8169 -9146.5715 -7421.3287 300.0567 290.9475 378.6150 29783.8762 -96.1648 -16.9592
ENERGY: 900000 2.2999 8.9314 4.9946 0.0000 -10539.6927 1398.0562 0.0000 0.0000 1759.0843 -7366.3263 301.8624 -9125.4105 -7427.0805 300.1184 -165.3373 -133.4975 29940.6831 -43.7254 23.7366
ENERGY: 1200000 2.5059 4.7988 1.8965 0.0000 -10764.1388 1501.4620 0.0000 0.0000 1701.7455 -7551.7302 292.0229 -9253.4757 -7444.8325 298.9252 431.9506 497.9843 29660.3380 -8.9536 52.1965
ENERGY: 1500000 9.5903 8.2526 3.5474 0.0000 -10620.1710 1409.8669 0.0000 0.0000 1760.4710 -7428.4428 302.1004 -9188.9138 -7446.1741 298.5252 -665.5735 -638.8774 30387.6417 -64.9349 -4.8729
TCL: Running FEP window   3: Lambda1 0.1    Lambda2 0.15000000000000002 [dLambda 0.05000000000000002]
TCL: Setting parameter firsttimestep to 0
TCL: Setting parameter alchLambda to 0.1
Info: NONBONDED TABLE R-SQUARED SPACING: 0.0625
Info: NONBONDED TABLE SIZE: 705 POINTS
TCL: Setting parameter alchLambda2 to 0.15000000000000002
Info: NONBONDED TABLE R-SQUARED SPACING: 0.0625
Info: NONBONDED TABLE SIZE: 705 POINTS
TCL: Running for 1500000 steps
ETITLE: TS BOND ANGLE DIHED IMPRP ELECT VDW BOUNDARY MISC KINETIC TOTAL TEMP POTENTIAL TOTALAVG TEMPAVG PRESSURE GPRESSURE VOLUME PRESSAVG GPRESSAVG
ENERGY: 0 9.5903 8.2526 3.5474 0.0000 -10620.1706 1411.2383 0.0000 0.0000 1759.5554 -7427.9866 301.9432 -9187.5420 -7427.9866 301.9432 -698.3013 -633.0890 30387.6417 -698.3013 -633.0890
ENERGY: 300000 5.1941 7.8973 3.1496 0.0000 -10412.1841 1349.8550 0.0000 0.0000 1730.4331 -7315.6550 296.9458 -9046.0881 -7428.1421 297.6331 -751.0282 -708.5333 30426.0551 -560.9382 -500.4990
ENERGY: 600000 4.5337 6.2931 3.9732 0.0000 -10672.6882 1514.2512 0.0000 0.0000 1754.7748 -7388.8622 301.1229 -9143.6370 -7421.3596 299.1426 558.6717 580.9004 30061.5396 -252.8212 -209.3002
ENERGY: 900000 5.0153 7.8132 2.0159 0.0000 -10842.2745 1604.6312 0.0000 0.0000 1733.3019 -7489.4969 297.4381 -9222.7988 -7431.8897 298.5747 959.2752 1074.6475 29870.1989 -99.0315 -51.6816
ENERGY: 1200000 1.6754 8.5939 2.6343 0.0000 -10485.9961 1367.3196 0.0000 0.0000 1743.3242 -7362.4489 299.1579 -9105.7730 -7431.2705 298.7161 -433.4219 -367.1912 30242.0012 -191.8158 -136.6087
ENERGY: 1500000 2.7651 5.0786 2.6450 0.0000 -10641.0063 1454.3127 0.0000 0.0000 1731.6683 -7444.5365 297.1578 -9176.2048 -7439.4170 298.0501 60.1933 116.2792 29995.6025 -139.2858 -77.0337
TCL: Running FEP window   4: Lambda1 0.15000000000000002 Lambda2 0.2    [dLambda 0.04999999999999999]
TCL: Setting parameter firsttimestep to 0
TCL: Setting parameter alchLambda to 0.15000000000000002
Info: NONBONDED TABLE R-SQUARED SPACING: 0.0625
Info: NONBONDED TABLE SIZE: 705 POINTS
TCL: Setting parameter alchLambda2 to 0.2
Info: NONBONDED TABLE R-SQUARED SPACING: 0.0625
Info: NONBONDED TABLE SIZE: 705 POINTS
TCL: Running for 1500000 steps
ETITLE: TS BOND ANGLE DIHED IMPRP ELECT VDW BOUNDARY MISC KINETIC TOTAL TEMP POTENTIAL TOTALAVG TEMPAVG PRESSURE GPRESSURE VOLUME PRESSAVG GPRESSAVG
ENERGY: 0 2.7651 5.0786 2.6450 0.0000 -10641.0056 1455.0804 0.0000 0.0000 1730.7980 -7444.6386 297.0084 -9175.4365 -7444.6386 297.0084 42.3561 121.6280 29995.6025 42.3561 121.6280
ENERGY: 300000 5.8637 7.3535 2.8395 0.0000 -10603.1411 1407.1070 0.0000 0.0000 1786.3433 -7393.6340 306.5401 -9179.9774 -7416.5226 301.5583 -207.6044 -153.1092 30060.0326 60.1871 111.0327
ENERGY: 600000 2.9136 5.7182 2.9858 0.0000 -10570.4872 1435.5640 0.0000 0.0000 1740.1438 -7383.1618 298.6122 -9123.3056 -7419.1337 299.7350 264.2663 307.0506 30020.7639 119.3353 173.5559
ENERGY: 900000 5.3256 4.0720 4.4292 0.0000 -10571.1350 1416.1926 0.0000 0.0000 1779.5062 -7361.6093 305.3668 -9141.1155 -7408.4835 301.1004 -250.2364 -203.7926 30455.4323 28.8348 83.6057
ENERGY: 1200000 3.3426 5.3303 2.3471 0.0000 -10745.1748 1566.4082 0.0000 0.0000 1780.4743 -7387.2723 305.5330 -9167.7466 -7399.2565 301.7115 954.3252 1111.4799 30043.0476 51.9146 109.8363
ENERGY: 1500000 1.7950 4.8625 1.9582 0.0000 -10446.5005 1334.3802 0.0000 0.0000 1748.5334 -7354.9712 300.0519 -9103.5046 -7401.6330 300.8186 -668.7099 -608.7483 30120.8010 16.8739 76.1830
TCL: Running FEP window   5: Lambda1 0.2    Lambda2 0.25   [dLambda 0.04999999999999999]
TCL: Setting parameter firsttimestep to 0
TCL: Setting parameter alchLambda to 0.2
Info: NONBONDED TABLE R-SQUARED SPACING: 0.0625
Info: NONBONDED TABLE SIZE: 705 POINTS
TCL: Setting parameter alchLambda2 to 0.25
Info: NONBONDED TABLE R-SQUARED SPACING: 0.0625
Info: NONBONDED TABLE SIZE: 705 POINTS
TCL: Running for 1500000 steps
ETITLE: TS BOND ANGLE DIHED IMPRP ELECT VDW BOUNDARY MISC KINETIC TOTAL TEMP POTENTIAL TOTALAVG TEMPAVG PRESSURE GPRESSURE VOLUME PRESSAVG GPRESSAVG
ENERGY: 0 1.7950 4.8625 1.9582 0.0000 -10446.5002 1335.4564 0.0000 0.0000 1747.6905 -7354.7375 299.9072 -9102.4281 -7354.7375 299.9072 -673.0559 -600.5466 30120.8010 -673.0559 -600.5466
ENERGY: 300000 6.1810 7.8831 2.8003 0.0000 -10642.8375 1383.5852 0.0000 0.0000 1744.3024 -7498.0854 299.3258 -9242.3878 -7408.7970 299.1968 -456.9479 -400.0859 29620.1005 -234.9480 -159.2298
ENERGY: 600000 5.9002 8.6070 4.4158 0.0000 -10672.5126 1413.9853 0.0000 0.0000 1755.1030 -7484.5012 301.1792 -9239.6043 -7413.9894 300.5304 -457.4365 -410.4195 30359.2818 -242.2807 -174.3470
ENERGY: 900000 1.3803 5.2843 1.9512 0.0000 -10644.2446 1496.0638 0.0000 0.0000 1681.8906 -7457.6743 288.6158 -9139.5649 -7414.3616 299.0613 736.0281 828.4589 29452.7993 -115.3985 -50.0535
ENERGY: 1200000 1.9866 10.7482 4.4373 0.0000 -10734.6207 1466.3253 0.0000 0.0000 1745.1915 -7505.9318 299.4784 -9251.1233 -7415.9261 299.3839 238.8243 269.4282 29581.7850 -96.7794 -39.4536
ENERGY: 1500000 3.1200 7.6683 2.4090 0.0000 -10669.4116 1484.6943 0.0000 0.0000 1780.9492 -7390.5709 305.6145 -9171.5201 -7413.2286 299.7221 495.1852 604.5251 29928.1021 -32.9792 31.3253
TCL: Running FEP window   6: Lambda1 0.25   Lambda2 0.3    [dLambda 0.04999999999999999]
TCL: Setting parameter firsttimestep to 0
TCL: Setting parameter alchLambda to 0.25
Info: NONBONDED TABLE R-SQUARED SPACING: 0.0625
Info: NONBONDED TABLE SIZE: 705 POINTS
TCL: Setting parameter alchLambda2 to 0.3
Info: NONBONDED TABLE R-SQUARED SPACING: 0.0625
Info: NONBONDED TABLE SIZE: 705 POINTS
TCL: Running for 1500000 steps
ETITLE: TS BOND ANGLE DIHED IMPRP ELECT VDW BOUNDARY MISC KINETIC TOTAL TEMP POTENTIAL TOTALAVG TEMPAVG PRESSURE GPRESSURE VOLUME PRESSAVG GPRESSAVG
ENERGY: 0 3.1200 7.6683 2.4090 0.0000 -10669.4119 1485.1822 0.0000 0.0000 1780.0797 -7390.9528 305.4653 -9171.0325 -7390.9528 305.4653 524.4464 611.7920 29928.1021 524.4464 611.7920
ENERGY: 300000 2.8967 5.7945 2.5523 0.0000 -10532.0513 1419.4411 0.0000 0.0000 1767.7777 -7333.5890 303.3542 -9101.3666 -7364.5933 302.8622 319.2907 438.3360 29760.7692 247.3539 318.7356
ENERGY: 600000 5.5411 7.9019 4.0764 0.0000 -10649.0113 1442.4194 0.0000 0.0000 1743.2906 -7445.7819 299.1522 -9189.0725 -7380.6601 303.1049 -109.7559 -53.5217 30077.9511 65.1833 123.6862
ENERGY: 900000 4.3688 7.3350 4.3726 0.0000 -10558.0306 1425.0570 0.0000 0.0000 1769.2446 -7347.6525 303.6059 -9116.8971 -7375.6772 303.0748 -154.8719 -127.1148 30533.6524 29.9410 78.6424
ENERGY: 1200000 5.0579 6.9098 2.1229 0.0000 -10522.2315 1415.7711 0.0000 0.0000 1736.6696 -7355.7001 298.0160 -9092.3697 -7383.6312 301.2135 163.6195 213.1741 30097.2713 93.6822 147.4797
ENERGY: 1500000 3.4047 7.5533 3.7880 0.0000 -10507.5427 1335.5092 0.0000 0.0000 1736.7331 -7420.5543 298.0269 -9157.2875 -7392.9736 301.6998 -678.5767 -586.3053 30331.9843 98.3874 155.4551
TCL: Running FEP window   7: Lambda1 0.3    Lambda2 0.35   [dLambda 0.04999999999999999]
TCL: Setting parameter firsttimestep to 0
TCL: Setting parameter alchLambda to 0.3
Info: NONBONDED TABLE R-SQUARED SPACING: 0.0625
Info: NONBONDED TABLE SIZE: 705 POINTS
TCL: Setting parameter alchLambda2 to 0.35
Info: NONBONDED TABLE R-SQUARED SPACING: 0.0625
Info: NONBONDED TABLE SIZE: 705 POINTS
TCL: Running for 1500000 steps
ETITLE: TS BOND ANGLE DIHED IMPRP ELECT VDW BOUNDARY MISC KINETIC TOTAL TEMP POTENTIAL TOTALAVG TEMPAVG PRESSURE GPRESSURE VOLUME PRESSAVG GPRESSAVG
ENERGY: 0 3.4047 7.5533 3.7880 0.0000 -10507.5415 1336.1469 0.0000 0.0000 1735.8900 -7420.7586 297.8822 -9156.6486 -7420.7586 297.8822 -658.5605 -576.8147 30331.9843 -658.5605 -576.8147
ENERGY: 300000 3.9730 6.9250 3.4063 0.0000 -10605.1144 1454.5385 0.0000 0.0000 1799.3030 -7336.9686 308.7640 -9136.2716 -7382.0774 300.3345 49.2275 120.2211 30250.6410 -119.3098 -54.4310
ENERGY: 600000 2.0941 9.7893 3.0866 0.0000 -10472.6659 1351.3212 0.0000 0.0000 1815.7371 -7290.6376 311.5841 -9106.3747 -7386.6832 301.4547 -298.1550 -234.8127 29924.4327 -16.6070 42.5027
ENERGY: 900000 2.2088 11.1146 4.1630 0.0000 -10497.8848 1335.0834 0.0000 0.0000 1834.9037 -7310.4113 314.8732 -9145.3150 -7383.2905 301.9396 -852.0188 -739.6600 30367.1453 21.7457 95.2006
ENERGY: 1200000 3.3720 8.1900 4.2767 0.0000 -10572.3557 1353.2380 0.0000 0.0000 1783.8342 -7419.4447 306.1095 -9203.2789 -7396.9750 300.8679 -804.0665 -784.8004 30222.7893 -44.9425 21.3835
ENERGY: 1500000 2.8705 6.2559 3.8088 0.0000 -10678.3203 1498.5813 0.0000 0.0000 1740.4752 -7426.3286 298.6690 -9166.8038 -7402.2208 300.5442 344.9265 421.3774 30151.3979 -16.2034 47.7353
TCL: Running FEP window   8: Lambda1 0.35   Lambda2 0.39999999999999997 [dLambda 0.04999999999999999]
TCL: Setting parameter firsttimestep to 0
TCL: Setting parameter alchLambda to 0.35
Info: NONBONDED TABLE R-SQUARED SPACING: 0.0625
Info: NONBONDED TABLE SIZE: 705 POINTS
TCL: Setting parameter alchLambda2 to 0.39999999999999997
Info: NONBONDED TABLE R-SQUARED SPACING: 0.0625
Info: NONBONDED TABLE SIZE: 705 POINTS
TCL: Running for 1500000 steps
ETITLE: TS BOND ANGLE DIHED IMPRP ELECT VDW BOUNDARY MISC KINETIC TOTAL TEMP POTENTIAL TOTALAVG TEMPAVG PRESSURE GPRESSURE VOLUME PRESSAVG GPRESSAVG
ENERGY: 0 2.8706 6.2559 3.8088 0.0000 -10678.3197 1498.9575 0.0000 0.0000 1739.6288 -7426.7981 298.5238 -9166.4269 -7426.7981 298.5238 352.3740 429.2437 30151.3979 352.3740 429.2437
ENERGY: 300000 1.5485 9.4439 4.7442 0.0000 -10552.8077 1381.4346 0.0000 0.0000 1752.0275 -7403.6090 300.6514 -9155.6365 -7422.6530 297.4466 -201.2555 -214.3380 30353.8954 -159.1242 -105.2144
ENERGY: 600000 4.1464 8.0963 2.3500 0.0000 -10687.5764 1494.2622 0.0000 0.0000 1759.9079 -7418.8136 302.0037 -9178.7215 -7415.1759 299.8957 358.5196 454.7863 30223.5782 31.0858 88.7126
ENERGY: 900000 1.4382 6.8497 4.2392 0.0000 -10575.2508 1322.0728 0.0000 0.0000 1757.8407 -7482.8102 301.6490 -9240.6509 -7435.6946 298.8780 -918.2000 -842.8409 29855.1760 -148.4604 -81.3108
ENERGY: 1200000 5.4338 6.8237 2.5225 0.0000 -10697.9446 1490.8917 0.0000 0.0000 1732.4054 -7459.8675 297.2843 -9192.2730 -7434.5993 298.7226 405.2057 472.3640 30181.1086 -135.6673 -65.6063
ENERGY: 1500000 2.3305 10.9111 2.2184 0.0000 -10478.6736 1339.1462 0.0000 0.0000 1781.9868 -7342.0805 305.7925 -9124.0673 -7423.3538 300.0688 -549.7459 -506.3721 30423.5134 -85.3500 -16.0209
TCL: Running FEP window   9: Lambda1 0.39999999999999997 Lambda2 0.44999999999999996 [dLambda 0.04999999999999999]
TCL: Setting parameter firsttimestep to 0
TCL: Setting parameter alchLambda to 0.39999999999999997
Info: NONBONDED TABLE R-SQUARED SPACING: 0.0625
Info: NONBONDED TABLE SIZE: 705 POINTS
TCL: Setting parameter alchLambda2 to 0.44999999999999996
Info: NONBONDED TABLE R-SQUARED SPACING: 0.0625
Info: NONBONDED TABLE SIZE: 705 POINTS
TCL: Running for 1500000 steps
ETITLE: TS BOND ANGLE DIHED IMPRP ELECT VDW BOUNDARY MISC KINETIC TOTAL TEMP POTENTIAL TOTALAVG TEMPAVG PRESSURE GPRESSURE VOLUME PRESSAVG GPRESSAVG
ENERGY: 0 2.3304 10.9111 2.2184 0.0000 -10478.6736 1338.5171 0.0000 0.0000 1781.1161 -7343.5805 305.6431 -9124.6965 -7343.5805 305.6431 -571.2147 -502.8934 30423.5134 -571.2147 -502.8934
ENERGY: 300000 1.7044 4.7412 6.0079 0.0000 -10546.1748 1406.3340 0.0000 0.0000 1737.9557 -7389.4315 298.2367 -9127.3872 -7394.6673 300.0392 -66.2003 -35.3985 30270.2222 -5.4115 65.7655
ENERGY: 600000 2.9549 11.9611 3.5533 0.0000 -10659.4417 1508.6057 0.0000 0.0000 1716.4905 -7415.8762 294.5532 -9132.3667 -7396.8806 301.2934 561.3244 668.0126 30206.1573 -9.2612 65.4655
ENERGY: 900000 2.1166 13.1186 4.6350 0.0000 -10594.9526 1451.4413 0.0000 0.0000 1763.0383 -7360.6026 302.5409 -9123.6409 -7396.3797 301.2363 241.9734 252.0023 30053.9992 71.6691 135.9887
ENERGY: 1200000 3.3049 3.3453 3.1664 0.0000 -10512.9553 1372.1255 0.0000 0.0000 1798.4689 -7332.5442 308.6209 -9131.0131 -7392.2953 301.4202 -399.6897 -296.8291 30498.9612 -23.2043 36.7245
ENERGY: 1500000 5.5693 10.7514 2.7983 0.0000 -10577.4783 1364.1435 0.0000 0.0000 1701.9911 -7492.2247 292.0651 -9194.2158 -7402.9878 301.1629 -574.9332 -500.3691 29498.3785 -81.0774 -18.9615
TCL: Running FEP window  10: Lambda1 0.44999999999999996 Lambda2 0.49999999999999994 [dLambda 0.04999999999999999]
TCL: Setting parameter firsttimestep to 0
TCL: Setting parameter alchLambda to 0.44999999999999996
Info: NONBONDED TABLE R-SQUARED SPACING: 0.0625
Info: NONBONDED TABLE SIZE: 705 POINTS
TCL: Setting parameter alchLambda2 to 0.49999999999999994
Info: NONBONDED TABLE R-SQUARED SPACING: 0.0625
Info: NONBONDED TABLE SIZE: 705 POINTS
TCL: Running for 1500000 steps
ETITLE: TS BOND ANGLE DIHED IMPRP ELECT VDW BOUNDARY MISC KINETIC TOTAL TEMP POTENTIAL TOTALAVG TEMPAVG PRESSURE GPRESSURE VOLUME PRESSAVG GPRESSAVG
ENERGY: 0 5.5693 10.7514 2.7983 0.0000 -10577.4797 1363.5774 0.0000 0.0000 1701.1090 -7493.6742 291.9137 -9194.7832 -7493.6742 291.9137 -587.6157 -497.5736 29498.3785 -587.6157 -497.5736
ENERGY: 300000 4.5359 6.2116 1.6233 0.0000 -10703.6396 1519.3520 0.0000 0.0000 1682.8934 -7489.0232 288.7879 -9171.9167 -7465.2551 296.5646 912.9879 968.9417 29605.0455 237.3191 287.4075
ENERGY: 600000 2.0259 9.0389 3.0574 0.0000 -10656.5220 1488.0540 0.0000 0.0000 1702.9117 -7451.4341 292.2231 -9154.3458 -7451.7930 297.0219 520.0912 506.8672 30173.3167 81.7697 127.8862
ENERGY: 900000 4.0493 7.2433 4.6483 0.0000 -10625.9014 1438.6729 0.0000 0.0000 1769.0762 -7402.2113 303.5770 -9171.2875 -7432.7481 297.7739 138.5738 156.2806 30036.6020 -33.1344 18.5800
ENERGY: 1200000 3.4813 6.3979 5.6971 0.0000 -10552.5487 1390.2266 0.0000 0.0000 1801.1621 -7345.5836 309.0830 -9146.7458 -7426.2610 299.9367 -244.2097 -178.9038 30171.7551 -97.5241 -34.7180
ENERGY: 1500000 5.1429 7.6550 4.1100 0.0000 -10599.2443 1424.6302 0.0000 0.0000 1726.8701 -7430.8362 296.3344 -9157.7063 -7424.5807 299.4455 94.4957 151.0574 29841.5492 -115.0465 -54.7249
TCL: Running FEP window  11: Lambda1 0.49999999999999994 Lambda2 0.5499999999999999 [dLambda 0.04999999999999999]
TCL: Setting parameter firsttimestep to 0
TCL: Setting parameter alchLambda to 0.49999999999999994
Info: NONBONDED TABLE R-SQUARED SPACING: 0.0625
Info: NONBONDED TABLE SIZE: 705 POINTS
TCL: Setting parameter alchLambda2 to 0.5499999999999999
Info: NONBONDED TABLE R-SQUARED SPACING: 0.0625
Info: NONBONDED TABLE SIZE: 705 POINTS
TCL: Running for 1500000 steps
ETITLE: TS BOND ANGLE DIHED IMPRP ELECT VDW BOUNDARY MISC KINETIC TOTAL TEMP POTENTIAL TOTALAVG TEMPAVG PRESSURE GPRESSURE VOLUME PRESSAVG GPRESSAVG
ENERGY: 0 5.1429 7.6550 4.1100 0.0000 -10599.2443 1424.2423 0.0000 0.0000 1726.0022 -7432.0920 296.1854 -9158.0942 -7432.0920 296.1854 59.0448 156.5982 29841.5492 59.0448 156.5982
ENERGY: 300000 4.2849 6.5782 4.6219 0.0000 -10404.7105 1293.9883 0.0000 0.0000 1742.8782 -7352.3590 299.0814 -9095.2372 -7397.8998 299.3088 -974.3950 -849.8313 30180.6771 -445.5839 -374.5519
ENERGY: 600000 4.8272 4.9529 4.1940 0.0000 -10700.6662 1501.4945 0.0000 0.0000 1748.8235 -7436.3740 300.1016 -9185.1975 -7424.1800 299.7498 360.8310 512.1483 30099.9279 -327.4641 -237.3637
ENERGY: 900000 4.7214 6.7394 2.8483 0.0000 -10718.1522 1517.9194 0.0000 0.0000 1741.5972 -7444.3266 298.8616 -9185.9238 -7428.6707 299.5738 1017.2790 1067.3470 29841.1780 -301.4686 -224.8874
ENERGY: 1200000 3.8058 3.8953 3.1783 0.0000 -10681.8361 1462.5331 0.0000 0.0000 1728.9359 -7479.4877 296.6889 -9208.4236 -7423.7822 299.6206 0.2231 133.9628 30127.1292 -145.5386 -62.0314
ENERGY: 1500000 3.7460 8.3900 1.4851 0.0000 -10614.6547 1419.6709 0.0000 0.0000 1768.8105 -7412.5523 303.5314 -9181.3628 -7422.7335 300.4766 -134.9058 -35.9359 29794.5504 -106.8955 -31.6760
TCL: Running FEP window  12: Lambda1 0.5499999999999999 Lambda2 0.6    [dLambda 0.050000000000000044]
TCL: Setting parameter firsttimestep to 0
TCL: Setting parameter alchLambda to 0.5499999999999999
Info: NONBONDED TABLE R-SQUARED SPACING: 0.0625
Info: NONBONDED TABLE SIZE: 705 POINTS
TCL: Setting parameter alchLambda2 to 0.6
Info: NONBONDED TABLE R-SQUARED SPACING: 0.0625
Info: NONBONDED TABLE SIZE: 705 POINTS
TCL: Running for 1500000 steps
ETITLE: TS BOND ANGLE DIHED IMPRP ELECT VDW BOUNDARY MISC KINETIC TOTAL TEMP POTENTIAL TOTALAVG TEMPAVG PRESSURE GPRESSURE VOLUME PRESSAVG GPRESSAVG
ENERGY: 0 3.7460 8.3900 1.4851 0.0000 -10614.9142 1419.2073 0.0000 0.0000 1767.9413 -7414.1445 303.3823 -9182.0858 -7414.1445 303.3823 -114.8457 -32.9949 29794.5504 -114.8457 -32.9949
ENERGY: 300000 3.4696 5.3155 3.4143 0.0000 -10567.1905 1362.8781 0.0000 0.0000 1760.4511 -7431.6620 302.0970 -9192.1131 -7412.3150 301.5863 -620.1081 -466.4101 29888.6828 -327.3616 -238.6586
ENERGY: 600000 4.5941 5.3893 3.3655 0.0000 -10753.3529 1438.9949 0.0000 0.0000 1786.9771 -7514.0320 306.6489 -9301.0091 -7435.7806 301.5931 -404.3811 -383.3103 30172.7415 -181.8840 -118.8132
ENERGY: 900000 4.0268 5.2572 3.2174 0.0000 -10634.0044 1448.7111 0.0000 0.0000 1744.9019 -7427.8901 299.4287 -9172.7920 -7432.1351 301.2782 422.8383 449.5842 29555.9800 -10.9538 58.2177
ENERGY: 1200000 1.9600 8.1086 3.3078 0.0000 -10537.7438 1378.5887 0.0000 0.0000 1799.9936 -7345.7850 308.8825 -9145.7787 -7421.8938 302.2884 -142.7110 -66.9168 30052.6107 23.0815 88.2626
ENERGY: 1500000 6.5526 7.8760 3.6168 0.0000 -10602.2040 1395.6966 0.0000 0.0000 1743.2229 -7445.2390 299.1406 -9188.4619 -7412.4748 302.7898 -383.0936 -306.7414 29893.9224 -45.1405 24.2515
TCL: Running FEP window  13: Lambda1 0.6    Lambda2 0.65   [dLambda 0.050000000000000044]
TCL: Setting parameter firsttimestep to 0
TCL: Setting parameter alchLambda to 0.6
Info: NONBONDED TABLE R-SQUARED SPACING: 0.0625
Info: NONBONDED TABLE SIZE: 705 POINTS
TCL: Setting parameter alchLambda2 to 0.65
Info: NONBONDED TABLE R-SQUARED SPACING: 0.0625
Info: NONBONDED TABLE SIZE: 705 POINTS
TCL: Running for 1500000 steps
ETITLE: TS BOND ANGLE DIHED IMPRP ELECT VDW BOUNDARY MISC KINETIC TOTAL TEMP POTENTIAL TOTALAVG TEMPAVG PRESSURE GPRESSURE VOLUME PRESSAVG GPRESSAVG
ENERGY: 0 6.5526 7.8760 3.6168 0.0000 -10602.2449 1395.7429 0.0000 0.0000 1742.3523 -7446.1042 298.9912 -9188.4565 -7446.1042 298.9912 -370.8407 -291.0971 29893.9224 -370.8407 -291.0971
ENERGY: 300000 2.7483 10.0449 6.5157 0.0000 -10526.5847 1409.2993 0.0000 0.0000 1725.7357 -7372.2409 296.1397 -9097.9765 -7416.4812 300.4324 191.8374 296.8387 29902.9739 -138.6524 -72.3923
ENERGY: 600000 2.2758 8.2555 2.8302 0.0000 -10645.3085 1431.8247 0.0000 0.0000 1778.4352 -7421.6871 305.1831 -9200.1223 -7415.9394 302.2030 16.7560 51.0449 29905.6221 -60.0267 -7.3346
ENERGY: 900000 1.1681 8.0739 1.8629 0.0000 -10516.1942 1403.0732 0.0000 0.0000 1743.4713 -7358.5448 299.1832 -9102.0161 -7421.6727 300.0096 -238.4005 -109.1271 30514.4290 -59.4891 -1.5654
ENERGY: 1200000 3.7072 6.4770 2.5559 0.0000 -10686.9952 1436.4343 0.0000 0.0000 1751.8820 -7485.9388 300.6265 -9237.8208 -7432.0560 299.9161 -237.3862 -169.1675 30147.7215 45.1725 97.6484
ENERGY: 1500000 4.9607 9.4279 4.4773 0.0000 -10482.4827 1390.0702 0.0000 0.0000 1797.9214 -7275.6252 308.5269 -9073.5466 -7415.9510 300.7471 -46.7736 0.8167 30206.1290 76.0791 133.5960
TCL: Running FEP window  14: Lambda1 0.65   Lambda2 0.7000000000000001 [dLambda 0.050000000000000044]
TCL: Setting parameter firsttimestep to 0
TCL: Setting parameter alchLambda to 0.65
Info: NONBONDED TABLE R-SQUARED SPACING: 0.0625
Info: NONBONDED TABLE SIZE: 705 POINTS
TCL: Setting parameter alchLambda2 to 0.7000000000000001
Info: NONBONDED TABLE R-SQUARED SPACING: 0.0625
Info: NONBONDED TABLE SIZE: 705 POINTS
TCL: Running for 1500000 steps
ETITLE: TS BOND ANGLE DIHED IMPRP ELECT VDW BOUNDARY MISC KINETIC TOTAL TEMP POTENTIAL TOTALAVG TEMPAVG PRESSURE GPRESSURE VOLUME PRESSAVG GPRESSAVG
ENERGY: 0 4.9607 9.4279 4.4773 0.0000 -10482.9040 1389.2689 0.0000 0.0000 1797.0349 -7277.7343 308.3748 -9074.7693 -7277.7343 308.3748 -81.8026 1.8367 30206.1290 -81.8026 1.8367
ENERGY: 300000 1.5274 7.1676 3.2974 0.0000 -10586.1969 1478.9584 0.0000 0.0000 1777.8262 -7317.4200 305.0786 -9095.2462 -7346.7916 306.7402 562.3940 610.4277 30246.3265 317.5363 369.6523
ENERGY: 600000 2.0712 12.2802 4.7379 0.0000 -10746.4130 1436.8535 0.0000 0.0000 1770.1527 -7520.3175 303.7618 -9290.4702 -7386.6057 304.6012 -10.0008 45.5913 29688.2980 120.4919 189.6207
ENERGY: 900000 8.1548 6.1363 2.6450 0.0000 -10731.8431 1480.0051 0.0000 0.0000 1738.7725 -7496.1294 298.3769 -9234.9019 -7400.9940 303.7424 400.8543 456.6563 29417.3303 123.3242 187.8196
ENERGY: 1200000 2.4169 9.3345 3.3808 0.0000 -10751.1170 1510.1303 0.0000 0.0000 1750.9138 -7474.9407 300.4603 -9225.8545 -7413.1077 302.8661 706.2399 729.8021 30076.2186 38.1008 108.0292
ENERGY: 1500000 2.6427 6.3063 2.5612 0.0000 -10629.8821 1449.2524 0.0000 0.0000 1747.6543 -7421.4652 299.9010 -9169.1195 -7408.5153 302.2741 -19.9051 80.3452 30376.9122 -54.8793 14.0835
TCL: Running FEP window  15: Lambda1 0.7000000000000001 Lambda2 0.7500000000000001 [dLambda 0.050000000000000044]
TCL: Setting parameter firsttimestep to 0
TCL: Setting parameter alchLambda to 0.7000000000000001
Info: NONBONDED TABLE R-SQUARED SPACING: 0.0625
Info: NONBONDED TABLE SIZE: 705 POINTS
TCL: Setting parameter alchLambda2 to 0.7500000000000001
Info: NONBONDED TABLE R-SQUARED SPACING: 0.0625
Info: NONBONDED TABLE SIZE: 705 POINTS
TCL: Running for 1500000 steps
ETITLE: TS BOND ANGLE DIHED IMPRP ELECT VDW BOUNDARY MISC KINETIC TOTAL TEMP POTENTIAL TOTALAVG TEMPAVG PRESSURE GPRESSURE VOLUME PRESSAVG GPRESSAVG
ENERGY: 0 2.6427 6.3063 2.5612 0.0000 -10629.8490 1450.4379 0.0000 0.0000 1746.8056 -7421.0952 299.7554 -9167.9008 -7421.0952 299.7554 12.0224 99.5900 30376.9122 12.0224 99.5900
ENERGY: 300000 1.6275 7.6840 4.9441 0.0000 -10781.4156 1535.8061 0.0000 0.0000 1738.1496 -7493.2042 298.2700 -9231.3538 -7421.1953 299.9166 857.9177 893.8484 29724.9713 84.1104 174.9561
ENERGY: 600000 2.6082 8.4195 4.4107 0.0000 -10553.1629 1390.3991 0.0000 0.0000 1791.8905 -7355.4348 307.4920 -9147.3254 -7431.9508 300.5170 -151.6545 -5.1181 29990.9557 -58.3188 30.6688
ENERGY: 900000 2.8447 8.4874 1.6483 0.0000 -10560.2982 1444.9252 0.0000 0.0000 1757.3917 -7345.0008 301.5720 -9102.3926 -7418.3044 300.3415 200.2089 349.1698 30184.9024 -65.5852 17.6907
ENERGY: 1200000 5.9425 7.6978 2.9246 0.0000 -10616.4823 1401.4784 0.0000 0.0000 1747.5451 -7450.8939 299.8823 -9198.4391 -7422.1540 299.9973 -485.9732 -437.4781 30349.2226 -115.0293 -39.8292
ENERGY: 1500000 3.2528 8.1530 5.2098 0.0000 -10528.7084 1373.2045 0.0000 0.0000 1740.9560 -7397.9323 298.7515 -9138.8883 -7419.9822 299.9395 -521.1371 -461.3630 30310.4197 -208.9888 -138.0537
TCL: Running FEP window  16: Lambda1 0.7500000000000001 Lambda2 0.8000000000000002 [dLambda 0.050000000000000044]
TCL: Setting parameter firsttimestep to 0
TCL: Setting parameter alchLambda to 0.7500000000000001
Info: NONBONDED TABLE R-SQUARED SPACING: 0.0625
Info: NONBONDED TABLE SIZE: 705 POINTS
TCL: Setting parameter alchLambda2 to 0.8000000000000002
Info: NONBONDED TABLE R-SQUARED SPACING: 0.0625
Info: NONBONDED TABLE SIZE: 705 POINTS
TCL: Running for 1500000 steps
ETITLE: TS BOND ANGLE DIHED IMPRP ELECT VDW BOUNDARY MISC KINETIC TOTAL TEMP POTENTIAL TOTALAVG TEMPAVG PRESSURE GPRESSURE VOLUME PRESSAVG GPRESSAVG
ENERGY: 0 3.2528 8.1530 5.2098 0.0000 -10529.2405 1373.0502 0.0000 0.0000 1740.0866 -7399.4881 298.6024 -9139.5747 -7399.4881 298.6024 -542.2430 -453.3760 30310.4197 -542.2430 -453.3760
ENERGY: 300000 4.6889 12.4420 3.1826 0.0000 -10759.3124 1548.7009 0.0000 0.0000 1728.3734 -7461.9247 296.5924 -9190.2981 -7457.2450 294.4428 755.1645 837.0815 30077.9280 31.1197 93.8818
ENERGY: 600000 3.7781 11.9765 3.6635 0.0000 -10545.0787 1441.3696 0.0000 0.0000 1730.9153 -7353.3756 297.0285 -9084.2909 -7445.9294 295.9292 69.6989 123.9342 30669.4832 -82.2927 -14.5304
ENERGY: 900000 2.7944 7.5922 3.2861 0.0000 -10623.9137 1477.5578 0.0000 0.0000 1762.8221 -7369.8611 302.5038 -9132.6832 -7452.6108 295.8282 400.8406 488.1633 30173.7655 62.9295 136.6792
ENERGY: 1200000 5.0400 7.3248 4.7606 0.0000 -10594.3355 1430.5984 0.0000 0.0000 1762.3352 -7384.2765 302.4203 -9146.6117 -7446.1622 296.9396 211.2629 249.2955 30102.6699 67.9166 133.7433
ENERGY: 1500000 1.2293 6.3546 4.6403 0.0000 -10736.5354 1527.3953 0.0000 0.0000 1775.0363 -7421.8797 304.5998 -9196.9160 -7443.9278 297.0988 915.1624 986.3811 29788.7697 122.7087 181.1261
TCL: Running FEP window  17: Lambda1 0.8000000000000002 Lambda2 0.8500000000000002 [dLambda 0.050000000000000044]
TCL: Setting parameter firsttimestep to 0
TCL: Setting parameter alchLambda to 0.8000000000000002
Info: NONBONDED TABLE R-SQUARED SPACING: 0.0625
Info: NONBONDED TABLE SIZE: 705 POINTS
TCL: Setting parameter alchLambda2 to 0.8500000000000002
Info: NONBONDED TABLE R-SQUARED SPACING: 0.0625
Info: NONBONDED TABLE SIZE: 705 POINTS
TCL: Running for 1500000 steps
ETITLE: TS BOND ANGLE DIHED IMPRP ELECT VDW BOUNDARY MISC KINETIC TOTAL TEMP POTENTIAL TOTALAVG TEMPAVG PRESSURE GPRESSURE VOLUME PRESSAVG GPRESSAVG
ENERGY: 0 1.2293 6.3546 4.6403 0.0000 -10736.6561 1527.9622 0.0000 0.0000 1774.1707 -7422.2991 304.4513 -9196.4698 -7422.2991 304.4513 920.9319 1006.2392 29788.7697 920.9319 1006.2392
ENERGY: 300000 1.8898 7.1248 2.1081 0.0000 -10600.6388 1410.5733 0.0000 0.0000 1762.5225 -7416.4203 302.4524 -9178.9428 -7439.1380 299.7580 151.7960 229.2060 30116.4927 80.7348 167.0010
ENERGY: 600000 2.0157 6.4953 3.6312 0.0000 -10459.2561 1420.0295 0.0000 0.0000 1762.4213 -7264.6631 302.4350 -9027.0845 -7417.5597 299.1294 207.9943 293.3387 30438.4200 149.7937 233.9283
ENERGY: 900000 2.5147 11.1038 3.0959 0.0000 -10702.3374 1473.5939 0.0000 0.0000 1780.2005 -7431.8285 305.4860 -9212.0291 -7425.1740 297.9857 624.2370 681.9369 29741.2619 50.3821 131.5359
ENERGY: 1200000 4.5946 7.5289 2.8297 0.0000 -10701.7213 1540.5191 0.0000 0.0000 1762.0230 -7384.2261 302.3667 -9146.2490 -7403.7832 300.3876 1242.3856 1249.5651 29745.5773 167.7842 231.5051
ENERGY: 1500000 1.6606 4.8311 2.7053 0.0000 -10521.3206 1413.4625 0.0000 0.0000 1726.7326 -7371.9286 296.3108 -9098.6612 -7397.5351 300.2373 -286.4315 -249.4474 30966.6550 107.7898 162.2268
TCL: Running FEP window  18: Lambda1 0.8500000000000002 Lambda2 0.9000000000000002 [dLambda 0.050000000000000044]
TCL: Setting parameter firsttimestep to 0
TCL: Setting parameter alchLambda to 0.8500000000000002
Info: NONBONDED TABLE R-SQUARED SPACING: 0.0625
Info: NONBONDED TABLE SIZE: 705 POINTS
TCL: Setting parameter alchLambda2 to 0.9000000000000002
Info: NONBONDED TABLE R-SQUARED SPACING: 0.0625
Info: NONBONDED TABLE SIZE: 705 POINTS
TCL: Running for 1500000 steps
ETITLE: TS BOND ANGLE DIHED IMPRP ELECT VDW BOUNDARY MISC KINETIC TOTAL TEMP POTENTIAL TOTALAVG TEMPAVG PRESSURE GPRESSURE VOLUME PRESSAVG GPRESSAVG
ENERGY: 0 1.6606 4.8311 2.7053 0.0000 -10521.7500 1413.3658 0.0000 0.0000 1725.8676 -7373.3196 296.1624 -9099.1872 -7373.3196 296.1624 -342.2941 -242.3708 30966.6550 -342.2941 -242.3708
ENERGY: 300000 2.0462 7.6332 2.7316 0.0000 -10592.4828 1398.9350 0.0000 0.0000 1765.9849 -7415.1519 303.0466 -9181.1367 -7405.5620 298.9994 -164.0180 -38.4011 30075.0333 -420.3091 -333.6402
ENERGY: 600000 2.6115 8.7499 2.2339 0.0000 -10544.3556 1371.5435 0.0000 0.0000 1789.9953 -7369.2216 307.1668 -9159.2169 -7410.0674 300.1276 -293.2348 -256.1987 30103.0157 -288.5671 -207.7364
ENERGY: 900000 2.2937 7.7764 6.2097 0.0000 -10464.4338 1367.2971 0.0000 0.0000 1765.7819 -7315.0749 303.0117 -9080.8568 -7398.3589 300.3528 -49.8310 32.6989 30129.0885 -216.3527 -132.2534
ENERGY: 1200000 6.3796 8.8705 3.9705 0.0000 -10375.7174 1277.4785 0.0000 0.0000 1729.3133 -7349.7050 296.7536 -9079.0183 -7395.4304 300.5181 -814.6560 -734.6174 30223.5226 -223.4862 -139.0705
ENERGY: 1500000 2.6739 3.7676 2.5332 0.0000 -10541.9243 1388.5066 0.0000 0.0000 1740.7269 -7403.7161 298.7122 -9144.4430 -7404.2612 299.5931 -322.7573 -276.6364 30543.5713 -277.1890 -192.6472
TCL: Running FEP window  19: Lambda1 0.9000000000000002 Lambda2 0.9500000000000003 [dLambda 0.050000000000000044]
TCL: Setting parameter firsttimestep to 0
TCL: Setting parameter alchLambda to 0.9000000000000002
Info: NONBONDED TABLE R-SQUARED SPACING: 0.0625
Info: NONBONDED TABLE SIZE: 705 POINTS
TCL: Setting parameter alchLambda2 to 0.9500000000000003
Info: NONBONDED TABLE R-SQUARED SPACING: 0.0625
Info: NONBONDED TABLE SIZE: 705 POINTS
TCL: Running for 1500000 steps
ETITLE: TS BOND ANGLE DIHED IMPRP ELECT VDW BOUNDARY MISC KINETIC TOTAL TEMP POTENTIAL TOTALAVG TEMPAVG PRESSURE GPRESSURE VOLUME PRESSAVG GPRESSAVG
ENERGY: 0 2.6739 3.7676 2.5332 0.0000 -10542.6103 1388.2781 0.0000 0.0000 1739.8657 -7405.4918 298.5645 -9145.3575 -7405.4918 298.5645 -340.1736 -265.2384 30543.5713 -340.1736 -265.2384
ENERGY: 300000 1.3420 6.5461 4.9369 0.0000 -10495.7518 1386.0627 0.0000 0.0000 1736.8712 -7359.9929 298.0506 -9096.8641 -7415.6359 298.1848 -91.3897 -38.8836 30501.1675 -147.3366 -76.6409
ENERGY: 600000 3.1712 3.6856 3.8139 0.0000 -10581.9140 1452.5800 0.0000 0.0000 1762.1088 -7356.5546 302.3814 -9118.6634 -7391.6248 299.9504 281.9487 275.5716 30537.4047 -72.6165 -30.2673
ENERGY: 900000 3.7836 7.8775 2.9145 0.0000 -10754.3301 1445.9278 0.0000 0.0000 1722.9096 -7570.9171 295.6547 -9293.8267 -7418.9802 300.5064 -8.5398 72.1039 29841.9375 -108.0832 -50.3770
ENERGY: 1200000 4.5493 5.2786 2.6552 0.0000 -10632.9550 1373.6082 0.0000 0.0000 1720.2977 -7526.5660 295.2065 -9246.8637 -7425.5283 300.1351 -217.7012 -168.1543 29927.1702 -25.2528 39.6137
ENERGY: 1500000 1.4250 10.3583 2.1296 0.0000 -10727.9520 1474.7806 0.0000 0.0000 1705.4263 -7533.8322 292.6546 -9239.2585 -7433.5810 299.5211 100.6840 189.7640 30034.4125 2.0726 66.4400
TCL: Running FEP window  20: Lambda1 0.9500000000000003 Lambda2 1.0    [dLambda 0.04999999999999971]
TCL: Setting parameter firsttimestep to 0
TCL: Setting parameter alchLambda to 0.9500000000000003
Info: NONBONDED TABLE R-SQUARED SPACING: 0.0625
Info: NONBONDED TABLE SIZE: 705 POINTS
TCL: Setting parameter alchLambda2 to 1.0
Info: NONBONDED TABLE R-SQUARED SPACING: 0.0625
Info: NONBONDED TABLE SIZE: 705 POINTS
TCL: Running for 1500000 steps
ETITLE: TS BOND ANGLE DIHED IMPRP ELECT VDW BOUNDARY MISC KINETIC TOTAL TEMP POTENTIAL TOTALAVG TEMPAVG PRESSURE GPRESSURE VOLUME PRESSAVG GPRESSAVG
ENERGY: 0 1.4250 10.3583 2.1296 0.0000 -10728.7368 1475.4670 0.0000 0.0000 1704.5053 -7534.8516 292.4965 -9239.3569 -7534.8516 292.4965 136.1720 216.7843 30034.4125 136.1720 216.7843
ENERGY: 300000 1.3106 6.5583 3.0983 0.0000 -10687.0204 1460.9868 0.0000 0.0000 1756.5114 -7458.5550 301.4209 -9215.0664 -7487.7137 296.2437 602.7826 641.6384 29647.2246 31.3937 106.8472
ENERGY: 600000 2.0207 9.1888 3.2777 0.0000 -10522.3798 1378.9246 0.0000 0.0000 1809.2638 -7319.7042 310.4733 -9128.9680 -7436.2564 301.0171 -409.1194 -305.7019 30650.9704 -81.8511 -7.0888
ENERGY: 900000 3.9963 11.6358 2.8231 0.0000 -10559.0860 1350.0966 0.0000 0.0000 1745.2314 -7445.3029 299.4852 -9190.5343 -7447.6292 299.2969 -523.5190 -500.1817 30181.2090 -115.3570 -44.1293
ENERGY: 1200000 4.1680 5.4262 5.8861 0.0000 -10518.3875 1344.7072 0.0000 0.0000 1758.2947 -7399.9053 301.7269 -9158.2000 -7444.8661 299.9012 -833.9826 -774.2389 30842.1584 -146.4001 -70.3975
ENERGY: 1500000 3.7883 6.0818 2.5353 0.0000 -10603.5588 1402.3477 0.0000 0.0000 1747.8178 -7440.9879 299.9290 -9188.8057 -7447.1878 299.6649 -239.3554 -185.3202 30183.4645 -149.6725 -82.9665
TCL: Exiting due to exit command.
