Info: SIMULATION PARAMETERS:
Info: TIMESTEP               2
Info: NUMBER OF STEPS        0
Info: STEPS PER CYCLE        10
Info: PERIODIC CELL BASIS 1  31.682 0 0
Info: PERIODIC CELL BASIS 2  0 33.7076 0
Info: PERIODIC CELL BASIS 3  0 0 29.1153
Info: PERIODIC CELL CENTER   0 0 0
Info: WRAPPING WATERS AROUND PERIODIC BOUNDARIES ON OUTPUT.
Info: WRAPPING ALL CLUSTERS AROUND PERIODIC BOUNDARIES ON OUTPUT.
Info: FIRST LDB TIMESTEP     50
Info: LAST LDB TIMESTEP     -1
Info: HOM BACKGROUND SCALING 1
Info: PME BACKGROUND SCALING 1
Info: MIN ATOMS PER PATCH    40
Info: EMPTY PATCH LOAD       40 ATOMS
Info: VELOCITY FILE          mobley_9197172_equil.vel
Info: CENTER OF MASS MOVING INITIALLY? NO
Info: DIELECTRIC             1
Info: EXCLUDE                SCALED ONE-FOUR
Info: 1-4 ELECTROSTATICS SCALED BY 0.833333
Info: MODIFIED 1-4 VDW PARAMETERS WILL BE USED
Info: DCD FILENAME           mobley_9197172_prod.dcd
Info: DCD FREQUENCY          100000
Info: DCD FIRST STEP         100000
Info: DCD FILE WILL CONTAIN UNIT CELL DATA
Info: XST FILENAME           mobley_9197172_prod.xst
Info: XST FREQUENCY          100000
Info: NO VELOCITY DCD OUTPUT
Info: NO FORCE DCD OUTPUT
Info: OUTPUT FILENAME        mobley_9197172_prod
Info: BINARY OUTPUT FILES WILL BE USED
Info: RESTART FILENAME       mobley_9197172_prod.restart
Info: RESTART FREQUENCY      100000
Info: BINARY RESTART FILES WILL BE USED
Info: CUTOFF                 9
Info: PAIRLIST DISTANCE      11
Info: PAIRLIST SHRINK RATE   0.01
Info: PAIRLIST GROW RATE     0.01
Info: PAIRLIST TRIGGER       0.3
Info: PAIRLISTS PER CYCLE    2
Info: PAIRLISTS ENABLED
Info: MARGIN                 2
Info: HYDROGEN GROUP CUTOFF  2.5
Info: PATCH DIMENSION        15.5
Info: ENERGY OUTPUT STEPS    100000
Info: ENERGY EVALUATION STEPS    100000
Info: OUTPUT ENERGY PRECISION 4
Info: CROSSTERM ENERGY INCLUDED IN DIHEDRAL
Info: TIMING OUTPUT STEPS    1000000
Info: PRESSURE OUTPUT STEPS  100000
Info: ALCHEMICAL FEP ON
Info: FEP CURRENT LAMBDA VALUE     1
Info: FEP COMPARISON LAMBDA VALUE  0.95
Info: FEP INTRA-ALCHEMICAL NON-BONDED INTERACTIONS WILL BE RETAINED
Info: FEP INTRA-ALCHEMICAL BONDED INTERACTIONS WILL BE RETAINED
Info: FEP VDW SHIFTING COEFFICIENT 5
Info: FEP ELEC. ACTIVE FOR ANNIHILATED PARTICLES BETWEEN LAMBDA = 0 AND LAMBDA = 0.5
Info: FEP ELEC. ACTIVE FOR EXNIHILATED PARTICLES BETWEEN LAMBDA = 0.5 AND LAMBDA = 1
Info: FEP VDW ACTIVE FOR ANNIHILATED PARTICLES BETWEEN LAMBDA = 0 AND LAMBDA = 1
Info: FEP VDW ACTIVE FOR EXNIHILATED PARTICLES BETWEEN LAMBDA = 0 AND LAMBDA = 1
Info: FEP BOND ACTIVE FOR ANNIHILATED PARTICLES BETWEEN LAMBDA = 1 AND LAMBDA = 1
Info: FEP BOND ACTIVE FOR EXNIHILATED PARTICLES BETWEEN LAMBDA = 0 AND LAMBDA = 0
Info: LANGEVIN DYNAMICS ACTIVE
Info: LANGEVIN TEMPERATURE   300
Info: LANGEVIN USING BBK INTEGRATOR
Info: LANGEVIN DAMPING COEFFICIENT IS 1 INVERSE PS
Info: LANGEVIN DYNAMICS APPLIED TO HYDROGENS
Info: LANGEVIN PISTON PRESSURE CONTROL ACTIVE
Info:        TARGET PRESSURE IS 1.01325 BAR
Info:     OSCILLATION PERIOD IS 50 FS
Info:             DECAY TIME IS 25 FS
Info:     PISTON TEMPERATURE IS 300 K
Info:       PRESSURE CONTROL IS GROUP-BASED
Info:    INITIAL STRAIN RATE IS 0.000423205 0.000423205 0.000423205
Info:       CELL FLUCTUATION IS ISOTROPIC
Info: PARTICLE MESH EWALD (PME) ACTIVE
Info: PME TOLERANCE               1e-06
Info: PME EWALD COEFFICIENT       0.348832
Info: PME INTERPOLATION ORDER     4
Info: PME GRID DIMENSIONS         32 36 32
Info: PME MAXIMUM GRID SPACING    1
Info: PME CALCULATION WILL BE PERFORMED ON GPU
Info: FULL ELECTROSTATIC EVALUATION FREQUENCY      2
Info: USING VERLET I (r-RESPA) MTS SCHEME.
Info: C1 SPLITTING OF LONG RANGE ELECTROSTATICS
Info: PLACING ATOMS IN PATCHES BY HYDROGEN GROUPS
Info: RIGID BONDS TO HYDROGEN : ALL
Info:         ERROR TOLERANCE : 1e-08
Info:          MAX ITERATIONS : 100
Info: RIGID WATER USING SETTLE ALGORITHM
Info: RANDOM NUMBER SEED     1744022405
Info: USE HYDROGEN BONDS?    NO
Info: Using AMBER format force field!
Info: AMBER PARM FILE        mobley_9197172.prmtop
Info: COORDINATE PDB         mobley_9197172.pdb
Info: Exclusions will be read from PARM file!
Info: SCNB (VDW SCALING)     2
Info: USING ARITHMETIC MEAN TO COMBINE L-J SIGMA PARAMETERS
Info: BINARY COORDINATES     mobley_9197172_equil.coor
Info: SUMMARY OF PARAMETERS:
Info: 7 BONDS
Info: 9 ANGLES
Info:   9 HARMONIC
Info:   0 COSINE-BASED
Info: 11 DIHEDRAL
Info: 0 IMPROPER
Info: 0 CROSSTERM
Info: 0 VDW
Info: 21 VDW_PAIRS
Info: 0 NBTHOLE_PAIRS
Info: To read alchdata from file: mobley_9197172.pdb
Info: To read alchflag data from column: 5
Info: STRUCTURE SUMMARY:
Info: 2982 ATOMS
Info: 2981 BONDS
Info: 42 ANGLES
Info: 67 DIHEDRALS
Info: 0 IMPROPERS
Info: 0 CROSSTERMS
Info: 3078 EXCLUSIONS
Info: 2974 RIGID BONDS
Info: ALCH: 0 ATOMS TO DISAPPEAR IN FINAL STATE
Info: ALCH: 24 ATOMS TO APPEAR IN FINAL STATE
Info: 5972 DEGREES OF FREEDOM
Info: 994 HYDROGEN GROUPS
Info: 4 ATOMS IN LARGEST HYDROGEN GROUP
Info: 994 MIGRATION GROUPS
Info: 4 ATOMS IN LARGEST MIGRATION GROUP
Info: TOTAL MASS = 17876 amu
Info: TOTAL CHARGE = -0.000100002 e
Info: MASS DENSITY = 0.954701 g/cm^3
Info: ATOM DENSITY = 0.0959061 atoms/A^3
Info: ADDED 0 IMPLICIT EXCLUSIONS
Info: NONBONDED TABLE R-SQUARED SPACING: 0.0625
Info: NONBONDED TABLE SIZE: 705 POINTS
Info: REDUCING NUMBER OF PATCHES TO IMPROVE LOAD BALANCE
Info: REMOVING COM VELOCITY 0.0275657 0.115627 0.0720592
Info: Use 3D box decompostion in PME FFT.
Info: Updated CUDA force table with 4096 elements.
Info: Updated CUDA LJ table with 6 x 6 elements.
Info: Found 27 unique exclusion lists needing 88 bytes
TCL: Running for 1500000 steps
ETITLE: TS BOND ANGLE DIHED IMPRP ELECT VDW BOUNDARY MISC KINETIC TOTAL TEMP POTENTIAL TOTALAVG TEMPAVG PRESSURE GPRESSURE VOLUME PRESSAVG GPRESSAVG
ENERGY: 0 2.9179 11.0067 3.4144 0.0000 -10589.1228 1325.4225 0.0000 0.0000 1810.7255 -7435.6358 305.1569 -9246.3613 -7435.6358 305.1569 -859.3344 -780.3709 31092.9280 -859.3344 -780.3709
ENERGY: 300000 1.8044 8.3663 7.7354 0.0000 -10807.7375 1472.5657 0.0000 0.0000 1798.8559 -7518.4096 303.1566 -9317.2656 -7504.5977 302.3371 54.7040 69.0817 30849.6096 -503.4224 -441.5797
ENERGY: 600000 1.1056 13.2788 6.2375 0.0000 -10838.9224 1461.0409 0.0000 0.0000 1815.3230 -7541.9366 305.9317 -9357.2596 -7496.5914 303.4056 -165.3295 -14.5748 30663.9018 -427.6435 -353.3365
ENERGY: 900000 0.9037 8.5098 6.5700 0.0000 -10733.3681 1404.3525 0.0000 0.0000 1745.7405 -7567.2916 294.2052 -9313.0321 -7512.3446 300.6157 92.8033 80.7798 30309.5898 -344.6759 -284.7234
ENERGY: 1200000 3.2863 14.0543 6.0577 0.0000 -10769.7143 1431.9783 0.0000 0.0000 1734.5651 -7579.7726 292.3218 -9314.3377 -7524.3303 298.4712 -306.1142 -222.9491 30773.4783 -293.5907 -229.4124
ENERGY: 1500000 0.6423 10.2015 4.4551 0.0000 -10784.1103 1443.7474 0.0000 0.0000 1779.1467 -7545.9173 299.8350 -9325.0640 -7531.3986 298.5202 -0.9380 40.1125 30762.2318 -237.2500 -173.3699
TCL: Running FEP window   2: Lambda1 0.95   Lambda2 0.8999999999999999 [dLambda -0.050000000000000044]
TCL: Setting parameter firsttimestep to 0
TCL: Setting parameter alchLambda to 0.95
Info: NONBONDED TABLE R-SQUARED SPACING: 0.0625
Info: NONBONDED TABLE SIZE: 705 POINTS
TCL: Setting parameter alchLambda2 to 0.8999999999999999
Info: NONBONDED TABLE R-SQUARED SPACING: 0.0625
Info: NONBONDED TABLE SIZE: 705 POINTS
TCL: Running for 1500000 steps
ETITLE: TS BOND ANGLE DIHED IMPRP ELECT VDW BOUNDARY MISC KINETIC TOTAL TEMP POTENTIAL TOTALAVG TEMPAVG PRESSURE GPRESSURE VOLUME PRESSAVG GPRESSAVG
ENERGY: 0 0.6423 10.2015 4.4551 0.0000 -10784.0573 1443.2844 0.0000 0.0000 1778.2579 -7547.2161 299.6852 -9325.4740 -7547.2161 299.6852 -59.1596 18.6586 30762.2318 -59.1596 18.6586
ENERGY: 300000 2.4813 8.9821 9.0626 0.0000 -10945.4288 1572.2800 0.0000 0.0000 1762.5621 -7590.0605 297.0401 -9352.6227 -7572.8390 298.8925 888.7906 961.3068 30651.6716 401.0588 486.5132
ENERGY: 600000 1.4995 12.1776 3.6793 0.0000 -10870.3928 1490.2885 0.0000 0.0000 1745.6854 -7617.0625 294.1959 -9362.7479 -7569.4101 298.7899 144.9165 197.8301 30661.5897 328.6266 404.2060
ENERGY: 900000 5.9209 9.3165 5.1809 0.0000 -10714.8901 1426.6612 0.0000 0.0000 1782.6033 -7485.2073 300.4175 -9267.8106 -7551.9289 299.4056 226.0809 281.6877 30382.2254 113.4044 182.5605
ENERGY: 1200000 1.7082 11.6641 12.1805 0.0000 -10675.4966 1318.0874 0.0000 0.0000 1764.1044 -7567.7520 297.3000 -9331.8564 -7546.2475 299.6271 -954.1004 -913.7557 30617.2931 -9.7398 50.1716
ENERGY: 1500000 1.2607 9.8007 6.9533 0.0000 -10844.5682 1498.6322 0.0000 0.0000 1731.5334 -7596.3879 291.8109 -9327.9213 -7547.3872 299.1462 239.9036 325.9825 30786.0525 61.8248 123.2762
TCL: Running FEP window   3: Lambda1 0.8999999999999999 Lambda2 0.8499999999999999 [dLambda -0.050000000000000044]
TCL: Setting parameter firsttimestep to 0
TCL: Setting parameter alchLambda to 0.8999999999999999
Info: NONBONDED TABLE R-SQUARED SPACING: 0.0625
Info: NONBONDED TABLE SIZE: 705 POINTS
TCL: Setting parameter alchLambda2 to 0.8499999999999999
Info: NONBONDED TABLE R-SQUARED SPACING: 0.0625
Info: NONBONDED TABLE SIZE: 705 POINTS
TCL: Running for 1500000 steps
ETITLE: TS BOND ANGLE DIHED IMPRP ELECT VDW BOUNDARY MISC KINETIC TOTAL TEMP POTENTIAL TOTALAVG TEMPAVG PRESSURE GPRESSURE VOLUME PRESSAVG GPRESSAVG
ENERGY: 0 1.2607 9.8006 6.9533 0.0000 -10844.4410 1499.0260 0.0000 0.0000 1730.6615 -7596.7388 291.6639 -9327.4003 -7596.7388 291.6639 219.2438 316.1958 30786.0525 219.2438 316.1958
ENERGY: 300000 2.7426 10.6969 5.7569 0.0000 -10637.3078 1352.0303 0.0000 0.0000 1747.8362 -7518.2449 294.5583 -9266.0811 -7502.5148 300.0924 -779.4322 -704.5452 30611.3637 -113.4594 -33.7242
ENERGY: 600000 1.9927 9.2888 9.0572 0.0000 -10672.6179 1433.8876 0.0000 0.0000 1846.6482 -7371.7435 311.2109 -9218.3917 -7492.9516 301.8828 -117.8080 -20.2150 31183.1271 -189.3203 -106.1743
ENERGY: 900000 0.7877 8.4780 3.7250 0.0000 -10804.3996 1479.4582 0.0000 0.0000 1776.8182 -7535.1324 299.4426 -9311.9506 -7490.5790 302.3110 390.4002 463.3542 30206.0721 -123.7906 -45.9419
ENERGY: 1200000 2.2853 13.7917 4.9436 0.0000 -10627.0150 1364.3617 0.0000 0.0000 1785.7510 -7455.8817 300.9480 -9241.6328 -7490.4582 302.3595 -397.5911 -338.3256 30532.2653 -106.1934 -36.3183
ENERGY: 1500000 1.7039 11.0236 7.5957 0.0000 -10801.5086 1482.3784 0.0000 0.0000 1724.8070 -7573.9999 290.6773 -9298.8070 -7494.6829 301.3327 545.1221 583.3233 30255.1849 8.1609 77.1620
TCL: Running FEP window   4: Lambda1 0.8499999999999999 Lambda2 0.7999999999999998 [dLambda -0.050000000000000044]
TCL: Setting parameter firsttimestep to 0
TCL: Setting parameter alchLambda to 0.8499999999999999
Info: NONBONDED TABLE R-SQUARED SPACING: 0.0625
Info: NONBONDED TABLE SIZE: 705 POINTS
TCL: Setting parameter alchLambda2 to 0.7999999999999998
Info: NONBONDED TABLE R-SQUARED SPACING: 0.0625
Info: NONBONDED TABLE SIZE: 705 POINTS
TCL: Running for 1500000 steps
ETITLE: TS BOND ANGLE DIHED IMPRP ELECT VDW BOUNDARY MISC KINETIC TOTAL TEMP POTENTIAL TOTALAVG TEMPAVG PRESSURE GPRESSURE VOLUME PRESSAVG GPRESSAVG
ENERGY: 0 1.7039 11.0237 7.5957 0.0000 -10801.4927 1482.8283 0.0000 0.0000 1723.9741 -7574.3671 290.5369 -9298.3412 -7574.3671 290.5369 484.2175 574.5646 30255.1849 484.2175 574.5646
ENERGY: 300000 1.6350 9.9898 7.5518 0.0000 -10703.6906 1388.3256 0.0000 0.0000 1809.8384 -7486.3499 305.0074 -9296.1883 -7504.3938 300.9780 -192.5911 -177.8108 30565.8518 6.9805 56.2104
ENERGY: 600000 2.4979 15.0961 6.5349 0.0000 -10811.6721 1445.7021 0.0000 0.0000 1827.1770 -7514.6640 307.9294 -9341.8410 -7501.9545 302.8616 -220.3324 -158.8382 30621.9952 -174.0944 -118.0239
ENERGY: 900000 2.0793 7.4654 8.0935 0.0000 -10708.7840 1389.0720 0.0000 0.0000 1837.7011 -7464.3728 309.7030 -9302.0739 -7496.7966 302.2435 -214.5073 -210.6682 30476.3489 -207.7071 -158.4707
ENERGY: 1200000 3.6256 10.1401 5.8696 0.0000 -10711.7911 1442.2033 0.0000 0.0000 1773.5535 -7476.3991 298.8924 -9249.9526 -7502.0352 301.7049 30.3132 108.2163 30760.5331 -198.3609 -142.0576
ENERGY: 1500000 1.4382 13.0662 3.7234 0.0000 -10858.1237 1487.6405 0.0000 0.0000 1743.7540 -7608.5015 293.8704 -9352.2554 -7514.2444 300.4006 106.9749 232.4173 30595.8606 -186.8608 -122.2010
TCL: Running FEP window   5: Lambda1 0.7999999999999998 Lambda2 0.7499999999999998 [dLambda -0.050000000000000044]
TCL: Setting parameter firsttimestep to 0
TCL: Setting parameter alchLambda to 0.7999999999999998
Info: NONBONDED TABLE R-SQUARED SPACING: 0.0625
Info: NONBONDED TABLE SIZE: 705 POINTS
TCL: Setting parameter alchLambda2 to 0.7499999999999998
Info: NONBONDED TABLE R-SQUARED SPACING: 0.0625
Info: NONBONDED TABLE SIZE: 705 POINTS
TCL: Running for 1500000 steps
ETITLE: TS BOND ANGLE DIHED IMPRP ELECT VDW BOUNDARY MISC KINETIC TOTAL TEMP POTENTIAL TOTALAVG TEMPAVG PRESSURE GPRESSURE VOLUME PRESSAVG GPRESSAVG
ENERGY: 0 1.4382 13.0662 3.7234 0.0000 -10858.1821 1488.1570 0.0000 0.0000 1742.8700 -7608.9274 293.7214 -9351.7974 -7608.9274 293.7214 140.2678 226.5660 30595.8606 140.2678 226.5660
ENERGY: 300000 3.6823 9.4735 4.9869 0.0000 -10858.8614 1422.3800 0.0000 0.0000 1750.5427 -7667.7960 295.0144 -9418.3386 -7603.1597 296.4607 -445.8206 -378.5817 30402.4704 -385.6658 -293.1655
ENERGY: 600000 3.6101 15.1400 6.7096 0.0000 -10700.1976 1458.2875 0.0000 0.0000 1764.0999 -7452.3504 297.2992 -9216.4503 -7527.2536 298.5940 63.2510 126.0761 31068.9542 -388.5184 -315.7396
ENERGY: 900000 1.9315 9.4455 9.8581 0.0000 -10691.0850 1342.7173 0.0000 0.0000 1762.2444 -7564.8882 296.9865 -9327.1327 -7538.9801 297.7004 -835.9555 -778.4128 30666.5868 -410.8605 -337.8953
ENERGY: 1200000 2.2144 11.2079 6.0243 0.0000 -10723.5585 1447.1952 0.0000 0.0000 1824.9696 -7431.9470 307.5574 -9256.9166 -7526.0492 299.5907 203.4590 280.3061 30538.2910 -289.4031 -221.9247
ENERGY: 1500000 1.2606 8.1903 8.3763 0.0000 -10891.6141 1572.4841 0.0000 0.0000 1759.8529 -7541.4498 296.5835 -9301.3028 -7532.4455 299.7061 1050.6359 1057.8582 30597.0768 -105.6670 -42.6687
TCL: Running FEP window   6: Lambda1 0.7499999999999998 Lambda2 0.6999999999999997 [dLambda -0.050000000000000044]
TCL: Setting parameter firsttimestep to 0
TCL: Setting parameter alchLambda to 0.7499999999999998
Info: NONBONDED TABLE R-SQUARED SPACING: 0.0625
Info: NONBONDED TABLE SIZE: 705 POINTS
TCL: Setting parameter alchLambda2 to 0.6999999999999997
Info: NONBONDED TABLE R-SQUARED SPACING: 0.0625
Info: NONBONDED TABLE SIZE: 705 POINTS
TCL: Running for 1500000 steps
ETITLE: TS BOND ANGLE DIHED IMPRP ELECT VDW BOUNDARY MISC KINETIC TOTAL TEMP POTENTIAL TOTALAVG TEMPAVG PRESSURE GPRESSURE VOLUME PRESSAVG GPRESSAVG
ENERGY: 0 1.2606 8.1903 8.3763 0.0000 -10891.6210 1572.5535 0.0000 0.0000 1758.9648 -7542.2754 296.4338 -9301.2403 -7542.2754 296.4338 960.4145 1046.9741 30597.0768 960.4145 1046.9741
ENERGY: 300000 2.3300 9.3345 9.2827 0.0000 -10688.3427 1410.6505 0.0000 0.0000 1828.9041 -7427.8410 308.2205 -9256.7452 -7504.6278 298.4993 -236.4145 -193.5989 30770.1408 310.7389 369.8895
ENERGY: 600000 4.2613 9.9119 6.4543 0.0000 -10820.7164 1523.7749 0.0000 0.0000 1760.2254 -7516.0886 296.6463 -9276.3140 -7529.8407 298.0479 677.8992 741.6730 30694.9486 321.9430 384.3002
ENERGY: 900000 1.6426 8.0904 7.1906 0.0000 -10906.8084 1572.6122 0.0000 0.0000 1776.1823 -7541.0904 299.3354 -9317.2726 -7518.0224 300.1738 944.8887 1002.7942 30654.2832 366.2646 418.8621
ENERGY: 1200000 0.9033 15.4870 8.6823 0.0000 -10829.4024 1553.7531 0.0000 0.0000 1849.2060 -7401.3706 311.6419 -9250.5766 -7503.7123 301.3333 1089.1313 1158.6785 30479.6900 382.3066 438.4136
ENERGY: 1500000 0.7223 10.6484 8.5441 0.0000 -10776.3945 1530.0004 0.0000 0.0000 1800.0221 -7426.4571 303.3531 -9226.4792 -7496.8419 302.3784 1185.1352 1237.3879 30155.3835 455.6845 506.9336
TCL: Running FEP window   7: Lambda1 0.6999999999999997 Lambda2 0.6499999999999997 [dLambda -0.050000000000000044]
TCL: Setting parameter firsttimestep to 0
TCL: Setting parameter alchLambda to 0.6999999999999997
Info: NONBONDED TABLE R-SQUARED SPACING: 0.0625
Info: NONBONDED TABLE SIZE: 705 POINTS
TCL: Setting parameter alchLambda2 to 0.6499999999999997
Info: NONBONDED TABLE R-SQUARED SPACING: 0.0625
Info: NONBONDED TABLE SIZE: 705 POINTS
TCL: Running for 1500000 steps
ETITLE: TS BOND ANGLE DIHED IMPRP ELECT VDW BOUNDARY MISC KINETIC TOTAL TEMP POTENTIAL TOTALAVG TEMPAVG PRESSURE GPRESSURE VOLUME PRESSAVG GPRESSAVG
ENERGY: 0 0.7223 10.6484 8.5441 0.0000 -10776.3344 1528.9267 0.0000 0.0000 1799.1605 -7428.3323 303.2079 -9227.4928 -7428.3323 303.2079 1133.9184 1210.6039 30155.3835 1133.9184 1210.6039
ENERGY: 300000 6.9904 11.8720 3.7116 0.0000 -10637.5234 1373.1436 0.0000 0.0000 1793.2633 -7448.5424 302.2140 -9241.8057 -7488.1278 301.8110 -395.9667 -338.8920 30680.1155 300.6181 375.7936
ENERGY: 600000 3.2182 8.6413 4.1824 0.0000 -10604.6110 1320.5439 0.0000 0.0000 1771.6755 -7496.3497 298.5759 -9268.0252 -7505.3457 300.7926 -950.2987 -895.4096 31009.8791 -73.1489 0.2458
ENERGY: 900000 3.3104 7.4565 5.5411 0.0000 -10688.3122 1390.2940 0.0000 0.0000 1808.9383 -7472.7718 304.8557 -9281.7101 -7491.3150 301.0534 -330.4987 -319.9828 30549.2530 -33.5736 32.4159
ENERGY: 1200000 3.2911 7.2534 6.7987 0.0000 -10927.3159 1546.7786 0.0000 0.0000 1844.4978 -7518.6963 310.8485 -9363.1941 -7497.6008 301.7543 957.7630 967.2254 29800.7168 66.4574 129.3269
ENERGY: 1500000 2.6020 7.4479 4.1113 0.0000 -10811.6974 1449.4997 0.0000 0.0000 1815.3557 -7532.6809 305.9372 -9348.0366 -7500.8674 301.9692 152.2850 173.0150 30187.0854 62.1338 117.8576
TCL: Running FEP window   8: Lambda1 0.6499999999999997 Lambda2 0.5999999999999996 [dLambda -0.050000000000000044]
TCL: Setting parameter firsttimestep to 0
TCL: Setting parameter alchLambda to 0.6499999999999997
Info: NONBONDED TABLE R-SQUARED SPACING: 0.0625
Info: NONBONDED TABLE SIZE: 705 POINTS
TCL: Setting parameter alchLambda2 to 0.5999999999999996
Info: NONBONDED TABLE R-SQUARED SPACING: 0.0625
Info: NONBONDED TABLE SIZE: 705 POINTS
TCL: Running for 1500000 steps
ETITLE: TS BOND ANGLE DIHED IMPRP ELECT VDW BOUNDARY MISC KINETIC TOTAL TEMP POTENTIAL TOTALAVG TEMPAVG PRESSURE GPRESSURE VOLUME PRESSAVG GPRESSAVG
ENERGY: 0 2.6020 7.4479 4.1113 0.0000 -10811.7813 1449.8318 0.0000 0.0000 1814.4637 -7533.3247 305.7869 -9347.7884 -7533.3247 305.7869 88.9491 167.9933 30187.0854 88.9491 167.9933
ENERGY: 300000 2.3072 11.2853 6.7275 0.0000 -10668.7593 1359.1335 0.0000 0.0000 1778.9880 -7510.3177 299.8083 -9289.3057 -7541.5995 299.1401 -689.6046 -587.8486 30435.4974 -613.8290 -546.6543
ENERGY: 600000 4.1422 16.1989 6.9130 0.0000 -10628.6685 1363.3928 0.0000 0.0000 1792.1231 -7445.8984 302.0219 -9238.0216 -7527.3404 299.4889 -607.4757 -575.8843 30836.7711 -426.1007 -363.8022
ENERGY: 900000 2.8113 7.9735 6.6128 0.0000 -10829.8410 1428.5375 0.0000 0.0000 1759.1757 -7624.7302 296.4693 -9383.9059 -7541.5160 299.2911 -273.9533 -209.6259 30226.3969 -366.6875 -300.1940
ENERGY: 1200000 2.7299 6.6437 7.5641 0.0000 -10692.9356 1394.0041 0.0000 0.0000 1814.3005 -7467.6933 305.7594 -9281.9937 -7528.0286 299.5730 -253.2927 -194.4910 30564.3914 -243.9671 -179.9845
ENERGY: 1500000 1.0305 12.4690 5.8323 0.0000 -10720.8582 1490.6302 0.0000 0.0000 1747.5986 -7463.2975 294.5183 -9210.8962 -7527.9351 298.8217 710.3468 771.9834 30556.9481 -123.2023 -66.4196
TCL: Running FEP window   9: Lambda1 0.5999999999999996 Lambda2 0.5499999999999996 [dLambda -0.050000000000000044]
TCL: Setting parameter firsttimestep to 0
TCL: Setting parameter alchLambda to 0.5999999999999996
Info: NONBONDED TABLE R-SQUARED SPACING: 0.0625
Info: NONBONDED TABLE SIZE: 705 POINTS
TCL: Setting parameter alchLambda2 to 0.5499999999999996
Info: NONBONDED TABLE R-SQUARED SPACING: 0.0625
Info: NONBONDED TABLE SIZE: 705 POINTS
TCL: Running for 1500000 steps
ETITLE: TS BOND ANGLE DIHED IMPRP ELECT VDW BOUNDARY MISC KINETIC TOTAL TEMP POTENTIAL TOTALAVG TEMPAVG PRESSURE GPRESSURE VOLUME PRESSAVG GPRESSAVG
ENERGY: 0 1.0305 12.4690 5.8323 0.0000 -10720.8387 1490.0885 0.0000 0.0000 1746.7001 -7464.7183 294.3669 -9211.4184 -7464.7183 294.3669 691.6113 755.7642 30556.9481 691.6113 755.7642
ENERGY: 300000 5.8110 9.5237 7.7156 0.0000 -10675.9022 1410.4535 0.0000 0.0000 1788.3336 -7454.0648 301.3833 -9242.3984 -7479.1885 299.8249 -99.9835 -25.9484 30357.9156 166.9047 213.8774
ENERGY: 600000 1.1379 9.7329 6.6897 0.0000 -10820.8830 1511.9788 0.0000 0.0000 1807.8422 -7483.5014 304.6710 -9291.3436 -7503.3477 300.8323 514.7724 598.4477 30547.8554 136.6163 191.6766
ENERGY: 900000 4.1365 12.2354 8.7750 0.0000 -10793.1564 1479.4054 0.0000 0.0000 1770.6258 -7517.9783 298.3990 -9288.6041 -7501.0517 301.6691 -106.4376 -34.4747 30536.4704 -32.4061 21.9185
ENERGY: 1200000 2.0273 10.6485 6.4050 0.0000 -10756.4631 1470.0795 0.0000 0.0000 1807.2042 -7460.0985 304.5635 -9267.3028 -7495.9068 301.9133 193.7425 227.8627 30849.7235 -78.3446 -21.1935
ENERGY: 1500000 2.5880 11.5105 7.4531 0.0000 -10791.5913 1412.0029 0.0000 0.0000 1814.0879 -7543.9490 305.7236 -9358.0369 -7498.9135 301.7584 -416.5684 -362.7199 30493.6518 -89.8933 -32.9932
TCL: Running FEP window  10: Lambda1 0.5499999999999996 Lambda2 0.4999999999999996 [dLambda -0.04999999999999999]
TCL: Setting parameter firsttimestep to 0
TCL: Setting parameter alchLambda to 0.5499999999999996
Info: NONBONDED TABLE R-SQUARED SPACING: 0.0625
Info: NONBONDED TABLE SIZE: 705 POINTS
TCL: Setting parameter alchLambda2 to 0.4999999999999996
Info: NONBONDED TABLE R-SQUARED SPACING: 0.0625
Info: NONBONDED TABLE SIZE: 705 POINTS
TCL: Running for 1500000 steps
ETITLE: TS BOND ANGLE DIHED IMPRP ELECT VDW BOUNDARY MISC KINETIC TOTAL TEMP POTENTIAL TOTALAVG TEMPAVG PRESSURE GPRESSURE VOLUME PRESSAVG GPRESSAVG
ENERGY: 0 2.5880 11.5105 7.4531 0.0000 -10791.4827 1412.5928 0.0000 0.0000 1813.1689 -7544.1696 305.5687 -9357.3385 -7544.1696 305.5687 -451.2066 -367.2551 30493.6518 -451.2066 -367.2551
ENERGY: 300000 1.2694 8.0644 4.9490 0.0000 -10912.7251 1536.1269 0.0000 0.0000 1736.9016 -7625.4138 292.7156 -9362.3154 -7564.8471 299.3568 306.8497 401.7204 30838.7224 -46.6904 49.1231
ENERGY: 600000 0.8377 10.9054 6.0504 0.0000 -10850.9324 1473.5076 0.0000 0.0000 1735.3685 -7624.2627 292.4572 -9359.6313 -7563.9988 297.6924 269.7787 347.5890 30169.8751 -14.4701 67.8333
ENERGY: 900000 2.5641 11.6400 5.3622 0.0000 -10727.5598 1446.9863 0.0000 0.0000 1779.2400 -7481.7671 299.8507 -9261.0072 -7542.4730 297.9256 380.1335 469.5629 30297.8218 -4.5730 62.5924
ENERGY: 1200000 2.6015 11.6071 4.9937 0.0000 -10756.8108 1434.2899 0.0000 0.0000 1785.1996 -7518.1189 300.8551 -9303.3185 -7524.5706 298.8630 -176.6005 -113.0038 30594.6880 -84.5194 -19.6800
ENERGY: 1500000 2.0923 14.2587 8.1361 0.0000 -10628.3553 1374.0313 0.0000 0.0000 1751.6136 -7478.2232 295.1949 -9229.8368 -7518.8731 298.2096 -282.0772 -233.0121 30612.3792 -105.5696 -37.7047
TCL: Running FEP window  11: Lambda1 0.4999999999999996 Lambda2 0.4499999999999996 [dLambda -0.04999999999999999]
TCL: Setting parameter firsttimestep to 0
TCL: Setting parameter alchLambda to 0.4999999999999996
Info: NONBONDED TABLE R-SQUARED SPACING: 0.0625
Info: NONBONDED TABLE SIZE: 705 POINTS
TCL: Setting parameter alchLambda2 to 0.4499999999999996
Info: NONBONDED TABLE R-SQUARED SPACING: 0.0625
Info: NONBONDED TABLE SIZE: 705 POINTS
TCL: Running for 1500000 steps
ETITLE: TS BOND ANGLE DIHED IMPRP ELECT VDW BOUNDARY MISC KINETIC TOTAL TEMP POTENTIAL TOTALAVG TEMPAVG PRESSURE GPRESSURE VOLUME PRESSAVG GPRESSAVG
ENERGY: 0 2.0923 14.2587 8.1361 0.0000 -10628.6227 1374.2408 0.0000 0.0000 1750.7314 -7479.1633 295.0463 -9229.8947 -7479.1633 295.0463 -314.6941 -239.7735 30612.3792 -314.6941 -239.7735
ENERGY: 300000 1.6707 8.7242 5.8956 0.0000 -10774.2893 1472.7029 0.0000 0.0000 1737.4738 -7547.8222 292.8120 -9285.2960 -7492.0120 300.2468 3.8795 63.8384 31065.1508 75.8328 135.5562
ENERGY: 600000 1.2132 9.0726 6.2448 0.0000 -10637.1336 1418.7826 0.0000 0.0000 1720.5924 -7481.2279 289.9670 -9201.8203 -7486.2823 299.1105 43.4559 128.7359 30530.3417 41.9789 99.2442
ENERGY: 900000 1.6852 11.5739 6.5136 0.0000 -10916.9458 1500.6001 0.0000 0.0000 1764.7346 -7631.8384 297.4062 -9396.5730 -7503.7843 299.3500 349.8103 393.9200 30387.1493 11.5959 64.1126
ENERGY: 1200000 2.0055 7.1816 3.8205 0.0000 -10626.3428 1326.3274 0.0000 0.0000 1764.0151 -7522.9926 297.2849 -9287.0077 -7505.5853 298.9911 -959.0250 -901.4296 30678.9799 -121.9741 -61.4228
ENERGY: 1500000 2.2354 11.9829 6.5480 0.0000 -10817.5337 1454.4949 0.0000 0.0000 1800.0528 -7542.2197 303.3583 -9342.2726 -7508.4966 299.1763 -361.3248 -273.3760 30784.1510 -80.6287 -15.4325
TCL: Running FEP window  12: Lambda1 0.4499999999999996 Lambda2 0.39999999999999963 [dLambda -0.04999999999999999]
TCL: Setting parameter firsttimestep to 0
TCL: Setting parameter alchLambda to 0.4499999999999996
Info: NONBONDED TABLE R-SQUARED SPACING: 0.0625
Info: NONBONDED TABLE SIZE: 705 POINTS
TCL: Setting parameter alchLambda2 to 0.39999999999999963
Info: NONBONDED TABLE R-SQUARED SPACING: 0.0625
Info: NONBONDED TABLE SIZE: 705 POINTS
TCL: Running for 1500000 steps
ETITLE: TS BOND ANGLE DIHED IMPRP ELECT VDW BOUNDARY MISC KINETIC TOTAL TEMP POTENTIAL TOTALAVG TEMPAVG PRESSURE GPRESSURE VOLUME PRESSAVG GPRESSAVG
ENERGY: 0 2.2354 11.9829 6.5480 0.0000 -10817.5335 1454.4980 0.0000 0.0000 1799.1786 -7543.0906 303.2109 -9342.2692 -7543.0906 303.2109 -364.7447 -282.2596 30784.1510 -364.7447 -282.2596
ENERGY: 300000 2.4831 13.1988 6.2354 0.0000 -10915.3409 1541.5324 0.0000 0.0000 1770.5181 -7581.3732 298.3809 -9351.8913 -7538.1025 300.4788 501.8760 585.5131 30431.5123 -18.4445 50.1551
ENERGY: 600000 2.7436 14.7131 7.2654 0.0000 -10623.3264 1384.8360 0.0000 0.0000 1728.3132 -7485.4550 291.2682 -9213.7682 -7537.6227 297.5516 -389.8312 -329.3733 30841.5625 -300.6736 -235.5867
ENERGY: 900000 2.6036 8.2382 9.3326 0.0000 -10596.0536 1414.5484 0.0000 0.0000 1796.7040 -7364.6268 302.7939 -9161.3307 -7517.6460 297.9926 -169.9719 -100.6370 30917.8995 -189.2324 -123.9199
ENERGY: 1200000 1.6749 7.8280 8.8014 0.0000 -10722.2211 1455.9044 0.0000 0.0000 1836.4497 -7411.5628 309.4921 -9248.0124 -7513.2799 299.0847 79.0997 201.4761 30795.9084 -265.2278 -195.7305
ENERGY: 1500000 2.0931 8.5231 8.0574 0.0000 -10779.1020 1396.1591 0.0000 0.0000 1743.3746 -7620.8947 293.8064 -9364.2693 -7512.9798 299.1668 -557.9706 -578.1083 30635.0678 -307.8028 -241.7505
TCL: Running FEP window  13: Lambda1 0.39999999999999963 Lambda2 0.34999999999999964 [dLambda -0.04999999999999999]
TCL: Setting parameter firsttimestep to 0
TCL: Setting parameter alchLambda to 0.39999999999999963
Info: NONBONDED TABLE R-SQUARED SPACING: 0.0625
Info: NONBONDED TABLE SIZE: 705 POINTS
TCL: Setting parameter alchLambda2 to 0.34999999999999964
Info: NONBONDED TABLE R-SQUARED SPACING: 0.0625
Info: NONBONDED TABLE SIZE: 705 POINTS
TCL: Running for 1500000 steps
ETITLE: TS BOND ANGLE DIHED IMPRP ELECT VDW BOUNDARY MISC KINETIC TOTAL TEMP POTENTIAL TOTALAVG TEMPAVG PRESSURE GPRESSURE VOLUME PRESSAVG GPRESSAVG
ENERGY: 0 2.0931 8.5231 8.0574 0.0000 -10779.1033 1396.2337 0.0000 0.0000 1742.4724 -7621.7235 293.6544 -9364.1960 -7621.7235 293.6544 -662.9511 -584.7565 30635.0678 -662.9511 -584.7565
ENERGY: 300000 4.2810 10.6776 9.3823 0.0000 -10798.0736 1531.4364 0.0000 0.0000 1727.4765 -7514.8199 291.1272 -9242.2963 -7521.1652 298.2259 500.1117 594.7390 30757.4369 -121.5478 -57.7239
ENERGY: 600000 3.3253 7.4985 10.0322 0.0000 -10627.9002 1354.3615 0.0000 0.0000 1731.9194 -7520.7632 291.8759 -9252.6827 -7503.1541 299.7619 -561.9921 -538.7788 30522.3135 -149.3888 -106.4170
ENERGY: 900000 2.3677 10.5521 6.8371 0.0000 -10767.2523 1441.0852 0.0000 0.0000 1762.7087 -7543.7015 297.0648 -9306.4102 -7519.7201 299.2073 -22.3354 -56.4182 30359.8965 -113.6241 -72.4143
ENERGY: 1200000 0.8187 17.7962 6.6800 0.0000 -10775.4012 1515.4986 0.0000 0.0000 1756.8720 -7477.7357 296.0811 -9234.6076 -7508.1596 299.3734 494.3857 564.8239 30669.7701 -44.1688 -1.7364
ENERGY: 1500000 3.1881 15.0067 3.8161 0.0000 -10685.8016 1353.8941 0.0000 0.0000 1765.0563 -7544.8404 297.4604 -9309.8967 -7519.7952 299.2478 -698.8163 -616.7822 30507.1052 -138.7211 -93.3493
TCL: Running FEP window  14: Lambda1 0.34999999999999964 Lambda2 0.29999999999999966 [dLambda -0.04999999999999999]
TCL: Setting parameter firsttimestep to 0
TCL: Setting parameter alchLambda to 0.34999999999999964
Info: NONBONDED TABLE R-SQUARED SPACING: 0.0625
Info: NONBONDED TABLE SIZE: 705 POINTS
TCL: Setting parameter alchLambda2 to 0.29999999999999966
Info: NONBONDED TABLE R-SQUARED SPACING: 0.0625
Info: NONBONDED TABLE SIZE: 705 POINTS
TCL: Running for 1500000 steps
ETITLE: TS BOND ANGLE DIHED IMPRP ELECT VDW BOUNDARY MISC KINETIC TOTAL TEMP POTENTIAL TOTALAVG TEMPAVG PRESSURE GPRESSURE VOLUME PRESSAVG GPRESSAVG
ENERGY: 0 3.1881 15.0067 3.8161 0.0000 -10685.8005 1353.2613 0.0000 0.0000 1764.1671 -7546.3612 297.3105 -9310.5284 -7546.3612 297.3105 -716.6931 -627.7984 30507.1052 -716.6931 -627.7984
ENERGY: 300000 1.6968 9.0009 5.3698 0.0000 -10665.7310 1313.6004 0.0000 0.0000 1808.0370 -7528.0262 304.7038 -9336.0632 -7484.2420 305.1934 -1235.7532 -1112.7943 30524.8164 -321.8217 -222.3738
ENERGY: 600000 2.0215 6.8409 7.3825 0.0000 -10755.6592 1499.2053 0.0000 0.0000 1790.1395 -7450.0695 301.6876 -9240.2090 -7510.0640 301.4318 316.3871 438.0217 31156.4451 -32.3121 45.2222
ENERGY: 900000 1.9805 10.0892 6.1618 0.0000 -10572.1562 1342.9412 0.0000 0.0000 1760.4843 -7450.4991 296.6899 -9210.9834 -7508.8150 299.6601 -608.9560 -627.3654 30936.7944 -147.3945 -83.9556
ENERGY: 1200000 1.1387 6.8211 7.7626 0.0000 -10825.0130 1515.4593 0.0000 0.0000 1762.2659 -7531.5654 296.9901 -9293.8313 -7509.6366 299.8111 450.8720 524.3789 30426.0666 -112.6630 -49.9793
ENERGY: 1500000 2.0155 10.3250 7.3421 0.0000 -10754.1959 1486.1974 0.0000 0.0000 1801.0500 -7447.2659 303.5263 -9248.3159 -7506.2667 300.4923 300.7332 361.5101 30929.0970 -51.5787 13.3026
TCL: Running FEP window  15: Lambda1 0.29999999999999966 Lambda2 0.24999999999999967 [dLambda -0.04999999999999999]
TCL: Setting parameter firsttimestep to 0
TCL: Setting parameter alchLambda to 0.29999999999999966
Info: NONBONDED TABLE R-SQUARED SPACING: 0.0625
Info: NONBONDED TABLE SIZE: 705 POINTS
TCL: Setting parameter alchLambda2 to 0.24999999999999967
Info: NONBONDED TABLE R-SQUARED SPACING: 0.0625
Info: NONBONDED TABLE SIZE: 705 POINTS
TCL: Running for 1500000 steps
ETITLE: TS BOND ANGLE DIHED IMPRP ELECT VDW BOUNDARY MISC KINETIC TOTAL TEMP POTENTIAL TOTALAVG TEMPAVG PRESSURE GPRESSURE VOLUME PRESSAVG GPRESSAVG
ENERGY: 0 2.0155 10.3250 7.3421 0.0000 -10754.1959 1486.7509 0.0000 0.0000 1800.1728 -7447.5896 303.3785 -9247.7624 -7447.5896 303.3785 269.8898 360.1872 30929.0970 269.8898 360.1872
ENERGY: 300000 1.8903 12.4100 6.0052 0.0000 -10787.1899 1444.9765 0.0000 0.0000 1851.7072 -7470.2006 312.0635 -9321.9078 -7491.7713 303.6039 45.1479 65.9500 30450.1776 -50.3526 28.0523
ENERGY: 600000 2.7988 8.1670 5.6397 0.0000 -10728.7177 1441.8112 0.0000 0.0000 1820.6816 -7449.6194 306.8348 -9270.3010 -7494.3286 301.7553 -162.5991 -49.1163 31019.1927 -17.3345 71.2709
ENERGY: 900000 4.5391 7.9175 4.5498 0.0000 -10754.2831 1454.6607 0.0000 0.0000 1793.1088 -7489.5072 302.1880 -9282.6160 -7510.4793 301.1574 -169.6532 -72.9046 30722.3302 -84.5739 2.6119
ENERGY: 1200000 1.4093 9.7014 8.6932 0.0000 -10661.2913 1443.2049 0.0000 0.0000 1803.4383 -7394.8443 303.9288 -9198.2826 -7507.2460 301.0794 172.7563 211.9077 30877.3006 -38.2170 40.7304
ENERGY: 1500000 0.8637 12.5718 8.1292 0.0000 -10763.8879 1449.3183 0.0000 0.0000 1750.4128 -7542.5921 294.9926 -9293.0049 -7509.9705 299.9865 141.9430 154.5555 30214.6695 -72.8257 6.2402
TCL: Running FEP window  16: Lambda1 0.24999999999999967 Lambda2 0.19999999999999968 [dLambda -0.04999999999999999]
TCL: Setting parameter firsttimestep to 0
TCL: Setting parameter alchLambda to 0.24999999999999967
Info: NONBONDED TABLE R-SQUARED SPACING: 0.0625
Info: NONBONDED TABLE SIZE: 705 POINTS
TCL: Setting parameter alchLambda2 to 0.19999999999999968
Info: NONBONDED TABLE R-SQUARED SPACING: 0.0625
Info: NONBONDED TABLE SIZE: 705 POINTS
TCL: Running for 1500000 steps
ETITLE: TS BOND ANGLE DIHED IMPRP ELECT VDW BOUNDARY MISC KINETIC TOTAL TEMP POTENTIAL TOTALAVG TEMPAVG PRESSURE GPRESSURE VOLUME PRESSAVG GPRESSAVG
ENERGY: 0 0.8637 12.5718 8.1292 0.0000 -10763.8862 1448.9535 0.0000 0.0000 1749.5117 -7543.8563 294.8407 -9293.3680 -7543.8563 294.8407 69.4208 146.8538 30214.6695 69.4208 146.8538
ENERGY: 300000 2.4161 8.6713 6.5676 0.0000 -10750.2990 1441.8509 0.0000 0.0000 1767.3963 -7523.3967 297.8548 -9290.7931 -7529.2950 297.0986 -99.3691 -7.4204 30775.6063 -112.2700 -57.9555
ENERGY: 600000 1.1850 11.6967 5.3992 0.0000 -10776.2564 1413.3657 0.0000 0.0000 1829.7733 -7514.8366 308.3670 -9344.6099 -7519.8490 298.7039 -364.3905 -332.1436 30624.8621 -148.7975 -81.6682
ENERGY: 900000 4.4524 9.6754 6.3573 0.0000 -10654.2713 1354.3201 0.0000 0.0000 1755.9126 -7523.5535 295.9194 -9279.4661 -7525.3339 298.3540 -1064.3939 -1008.7117 30981.4281 -254.6221 -192.2644
ENERGY: 1200000 3.3217 10.1709 5.5483 0.0000 -10549.2175 1261.2546 0.0000 0.0000 1788.0882 -7480.8337 301.3419 -9268.9219 -7517.7995 298.7844 -1597.3993 -1539.7472 30758.9065 -385.3063 -326.8380
ENERGY: 1500000 1.5253 9.7988 5.2831 0.0000 -10760.8259 1470.9390 0.0000 0.0000 1751.3173 -7521.9624 295.1450 -9273.2797 -7514.6934 298.6498 77.3213 115.5282 30750.2286 -347.3928 -287.1693
TCL: Running FEP window  17: Lambda1 0.19999999999999968 Lambda2 0.1499999999999997 [dLambda -0.04999999999999999]
TCL: Setting parameter firsttimestep to 0
TCL: Setting parameter alchLambda to 0.19999999999999968
Info: NONBONDED TABLE R-SQUARED SPACING: 0.0625
Info: NONBONDED TABLE SIZE: 705 POINTS
TCL: Setting parameter alchLambda2 to 0.1499999999999997
Info: NONBONDED TABLE R-SQUARED SPACING: 0.0625
Info: NONBONDED TABLE SIZE: 705 POINTS
TCL: Running for 1500000 steps
ETITLE: TS BOND ANGLE DIHED IMPRP ELECT VDW BOUNDARY MISC KINETIC TOTAL TEMP POTENTIAL TOTALAVG TEMPAVG PRESSURE GPRESSURE VOLUME PRESSAVG GPRESSAVG
ENERGY: 0 1.5253 9.7988 5.2831 0.0000 -10760.8289 1471.0231 0.0000 0.0000 1750.4244 -7522.7742 294.9945 -9273.1986 -7522.7742 294.9945 37.6432 109.3391 30750.2286 37.6432 109.3391
ENERGY: 300000 2.9522 13.3863 7.8680 0.0000 -10752.6481 1366.8860 0.0000 0.0000 1796.6393 -7564.9163 302.7830 -9361.5556 -7532.5852 298.1705 -1179.0692 -1115.2841 30969.3219 -277.8713 -221.6398
ENERGY: 600000 1.3184 6.5677 6.6620 0.0000 -10633.4877 1383.6945 0.0000 0.0000 1830.7167 -7404.5284 308.5260 -9235.2451 -7501.3137 300.6721 -393.0586 -335.6086 30833.1284 -99.1244 -37.8890
ENERGY: 900000 1.7894 9.6786 5.6137 0.0000 -10838.5747 1536.3655 0.0000 0.0000 1780.0283 -7505.0992 299.9836 -9285.1274 -7517.2416 299.1280 807.8804 790.5856 30353.5320 2.9778 51.0520
ENERGY: 1200000 2.4418 9.5515 4.0916 0.0000 -10821.0163 1535.6169 0.0000 0.0000 1743.2981 -7526.0164 293.7935 -9269.3145 -7527.6317 298.3788 936.8079 1003.2202 30103.7450 56.6168 115.1614
ENERGY: 1500000 2.1631 7.3478 5.5541 0.0000 -10654.3529 1366.0133 0.0000 0.0000 1772.3522 -7500.9224 298.6899 -9273.2746 -7529.5192 297.7423 -920.7727 -766.2558 31303.6633 78.0113 145.3108
TCL: Running FEP window  18: Lambda1 0.1499999999999997 Lambda2 0.09999999999999969 [dLambda -0.05 ]
TCL: Setting parameter firsttimestep to 0
TCL: Setting parameter alchLambda to 0.1499999999999997
Info: NONBONDED TABLE R-SQUARED SPACING: 0.0625
Info: NONBONDED TABLE SIZE: 705 POINTS
TCL: Setting parameter alchLambda2 to 0.09999999999999969
Info: NONBONDED TABLE R-SQUARED SPACING: 0.0625
Info: NONBONDED TABLE SIZE: 705 POINTS
TCL: Running for 1500000 steps
ETITLE: TS BOND ANGLE DIHED IMPRP ELECT VDW BOUNDARY MISC KINETIC TOTAL TEMP POTENTIAL TOTALAVG TEMPAVG PRESSURE GPRESSURE VOLUME PRESSAVG GPRESSAVG
ENERGY: 0 2.1631 7.3478 5.5541 0.0000 -10654.3515 1366.3603 0.0000 0.0000 1771.4213 -7501.5048 298.5331 -9272.9261 -7501.5048 298.5331 -847.2708 -766.7163 31303.6633 -847.2708 -766.7163
ENERGY: 300000 1.8862 8.3075 6.6832 0.0000 -10677.6339 1416.8108 0.0000 0.0000 1764.9183 -7479.0281 297.4371 -9243.9464 -7499.7291 298.4558 -16.1658 11.5903 30449.3139 -132.6254 -66.0837
ENERGY: 600000 2.0561 15.8780 6.5298 0.0000 -10923.1478 1560.8675 0.0000 0.0000 1807.4621 -7530.3543 304.6069 -9337.8165 -7497.6477 300.9618 1080.8638 1108.9962 30265.8078 147.8332 205.7785
ENERGY: 900000 8.4178 12.2632 7.5474 0.0000 -10687.3953 1325.6840 0.0000 0.0000 1751.6822 -7581.8006 295.2065 -9333.4829 -7511.3128 300.0702 -1336.6256 -1255.8844 30713.0054 4.4883 65.4038
ENERGY: 1200000 1.0852 9.0985 7.2746 0.0000 -10760.3644 1447.6642 0.0000 0.0000 1775.1563 -7520.0855 299.1625 -9295.2418 -7507.7829 300.4318 78.2543 60.7834 30469.7111 -60.5026 -7.1651
ENERGY: 1500000 1.6688 13.6934 5.9512 0.0000 -10697.5714 1418.3974 0.0000 0.0000 1742.2189 -7515.6417 293.6117 -9257.8605 -7513.5140 299.6012 -246.8151 -210.0984 30664.6729 -84.9418 -34.2512
TCL: Running FEP window  19: Lambda1 0.09999999999999969 Lambda2 0.049999999999999684 [dLambda -0.05 ]
TCL: Setting parameter firsttimestep to 0
TCL: Setting parameter alchLambda to 0.09999999999999969
Info: NONBONDED TABLE R-SQUARED SPACING: 0.0625
Info: NONBONDED TABLE SIZE: 705 POINTS
TCL: Setting parameter alchLambda2 to 0.049999999999999684
Info: NONBONDED TABLE R-SQUARED SPACING: 0.0625
Info: NONBONDED TABLE SIZE: 705 POINTS
TCL: Running for 1500000 steps
ETITLE: TS BOND ANGLE DIHED IMPRP ELECT VDW BOUNDARY MISC KINETIC TOTAL TEMP POTENTIAL TOTALAVG TEMPAVG PRESSURE GPRESSURE VOLUME PRESSAVG GPRESSAVG
ENERGY: 0 1.6688 13.6934 5.9512 0.0000 -10697.5717 1418.5106 0.0000 0.0000 1741.3182 -7516.4294 293.4599 -9257.7476 -7516.4294 293.4599 -287.3712 -210.5628 30664.6729 -287.3712 -210.5628
ENERGY: 300000 1.9273 12.4790 4.7929 0.0000 -10756.8182 1454.0569 0.0000 0.0000 1782.0991 -7501.4631 300.3326 -9283.5622 -7537.4980 295.8622 172.8733 133.4914 30035.1691 -88.0405 -47.5691
ENERGY: 600000 1.8041 8.0132 3.5433 0.0000 -10784.5825 1470.6679 0.0000 0.0000 1755.8493 -7544.7047 295.9088 -9300.5540 -7528.6568 296.7246 227.1427 298.1009 30292.3889 -188.0093 -139.5288
ENERGY: 900000 3.0306 13.1304 5.3394 0.0000 -10618.6476 1372.4863 0.0000 0.0000 1784.4909 -7440.1699 300.7357 -9224.6609 -7520.3692 297.2865 -560.6191 -524.0313 30672.3673 -238.4375 -182.2351
ENERGY: 1200000 2.4004 6.0110 5.6365 0.0000 -10703.9490 1442.5676 0.0000 0.0000 1739.7793 -7507.5541 293.2005 -9247.3334 -7511.8970 297.9708 -35.1845 -25.7103 30344.3356 -216.4085 -159.7209
ENERGY: 1500000 4.0625 10.7380 7.7903 0.0000 -10925.2603 1548.7159 0.0000 0.0000 1798.4947 -7555.4590 303.0957 -9353.9537 -7514.3691 298.1105 834.9711 855.4358 29862.3764 -111.5632 -62.8920
TCL: Running FEP window  20: Lambda1 0.049999999999999684 Lambda2 0.0    [dLambda -0.049999999999999684]
TCL: Setting parameter firsttimestep to 0
TCL: Setting parameter alchLambda to 0.049999999999999684
Info: NONBONDED TABLE R-SQUARED SPACING: 0.0625
Info: NONBONDED TABLE SIZE: 705 POINTS
TCL: Setting parameter alchLambda2 to 0.0
Info: NONBONDED TABLE R-SQUARED SPACING: 0.0625
Info: NONBONDED TABLE SIZE: 705 POINTS
TCL: Running for 1500000 steps
ETITLE: TS BOND ANGLE DIHED IMPRP ELECT VDW BOUNDARY MISC KINETIC TOTAL TEMP POTENTIAL TOTALAVG TEMPAVG PRESSURE GPRESSURE VOLUME PRESSAVG GPRESSAVG
ENERGY: 0 4.0625 10.7380 7.7903 0.0000 -10925.2599 1546.8128 0.0000 0.0000 1797.6331 -7558.2232 302.9505 -9355.8562 -7558.2232 302.9505 765.6673 848.0890 29862.3764 765.6673 848.0890
ENERGY: 300000 2.6246 8.6131 6.5150 0.0000 -10736.3790 1367.6898 0.0000 0.0000 1793.5934 -7557.3431 302.2697 -9350.9365 -7551.4827 304.4062 -872.6457 -760.7368 30307.3148 336.7049 394.5257
ENERGY: 600000 2.6396 13.9592 5.7984 0.0000 -10803.3936 1455.4359 0.0000 0.0000 1843.5115 -7482.0490 310.6822 -9325.5605 -7530.9451 305.4792 -214.1855 -137.4734 30493.5278 78.9504 142.2176
ENERGY: 900000 2.7425 8.6401 5.9919 0.0000 -10905.5424 1494.4295 0.0000 0.0000 1770.1337 -7623.6046 298.3161 -9393.7384 -7545.5725 302.5361 151.8781 142.7783 30446.2469 95.8765 159.2258
ENERGY: 1200000 2.4674 7.1134 9.7343 0.0000 -10733.2102 1399.4960 0.0000 0.0000 1748.5162 -7565.8829 294.6729 -9314.3991 -7545.5402 301.2328 -566.2851 -520.5611 30313.0466 27.4473 85.7960
ENERGY: 1500000 5.6025 11.2743 7.4714 0.0000 -10679.5762 1412.2373 0.0000 0.0000 1770.3198 -7472.6708 298.3474 -9242.9905 -7538.2543 301.0060 -374.6109 -347.2871 30737.5991 47.8453 102.8742
TCL: Exiting due to exit command.
